Network_02R-173/scenario_136/case.raw
0,100.0,33,0,0,60.0
GRID OPTIMIZATION COMPETITION
INPUT DATA FILES ARE RAW ROP INL CON
1,'            ',138.0,1,1,1,1,1.0409398,-11.726689,1.1,0.9,1.1,0.9
2,'            ',138.0,1,1,1,1,1.0314183,-18.322105,1.1,0.9,1.1,0.9
3,'            ',138.0,1,1,1,1,1.033433,-18.505091,1.1,0.9,1.1,0.9
4,'            ',138.0,1,1,1,1,1.0436965,-13.984382,1.1,0.9,1.1,0.9
5,'            ',138.0,1,1,1,1,1.045984,-13.08363,1.1,0.9,1.1,0.9
6,'            ',138.0,1,1,1,1,1.0453422,-13.812064,1.1,0.9,1.1,0.9
7,'            ',138.0,1,1,1,1,1.0551494,-12.435719,1.1,0.9,1.1,0.9
8,'            ',138.0,1,1,1,1,1.0511451,-12.265323,1.1,0.9,1.1,0.9
9,'            ',138.0,1,1,1,1,1.0401539,-18.69988,1.1,0.9,1.1,0.9
10,'            ',138.0,1,1,1,1,1.0492707,-8.8755403,1.1,0.9,1.1,0.9
11,'            ',138.0,1,1,1,1,1.043626,-10.026147,1.1,0.9,1.1,0.9
12,'            ',138.0,1,1,1,1,1.0502958,-8.6768541,1.1,0.9,1.1,0.9
13,'            ',138.0,1,1,1,1,1.0438144,-15.611786,1.1,0.9,1.1,0.9
14,'            ',138.0,1,1,1,1,1.0461005,-16.157178,1.1,0.9,1.1,0.9
15,'            ',138.0,1,1,1,1,1.049218,-12.55118,1.1,0.9,1.1,0.9
16,'            ',138.0,1,1,1,1,1.0519802,-12.935721,1.1,0.9,1.1,0.9
17,'            ',138.0,1,1,1,1,1.0381218,-17.178991,1.1,0.9,1.1,0.9
18,'            ',138.0,1,1,1,1,1.0420118,-5.7316255,1.1,0.9,1.1,0.9
19,'            ',138.0,1,1,1,1,1.0505253,-8.5733323,1.1,0.9,1.1,0.9
20,'            ',345.0,1,1,1,1,1.0533545,-6.6035394,1.1,0.9,1.1,0.9
21,'            ',138.0,1,1,1,1,1.0576848,-7.3649727,1.1,0.9,1.1,0.9
22,'            ',345.0,1,1,1,1,1.0537809,-6.5777155,1.1,0.9,1.1,0.9
23,'            ',138.0,1,1,1,1,1.0539953,-7.7621301,1.1,0.9,1.1,0.9
24,'            ',138.0,1,1,1,1,1.0427926,-14.517908,1.1,0.9,1.1,0.9
25,'            ',345.0,1,1,1,1,1.0386316,-10.388823,1.1,0.9,1.1,0.9
26,'            ',138.0,1,1,1,1,1.0630231,-11.817846,1.1,0.9,1.1,0.9
27,'            ',345.0,1,1,1,1,1.0380887,-10.44043,1.1,0.9,1.1,0.9
28,'            ',138.0,1,1,1,1,1.0493701,-12.530224,1.1,0.9,1.1,0.9
29,'            ',138.0,1,1,1,1,1.045447,-13.237319,1.1,0.9,1.1,0.9
30,'            ',138.0,1,1,1,1,1.0537044,-12.484284,1.1,0.9,1.1,0.9
31,'            ',138.0,1,1,1,1,1.0510911,-8.2154453,1.1,0.9,1.1,0.9
32,'            ',138.0,1,1,1,1,1.0271857,-18.380691,1.1,0.9,1.1,0.9
33,'            ',138.0,1,1,1,1,1.0278765,-17.979461,1.1,0.9,1.1,0.9
34,'            ',138.0,1,1,1,1,1.0367049,-16.832099,1.1,0.9,1.1,0.9
35,'            ',138.0,1,1,1,1,1.0533658,-18.29735,1.1,0.9,1.1,0.9
36,'            ',138.0,1,1,1,1,1.0293989,-18.44754,1.1,0.9,1.1,0.9
37,'            ',138.0,1,1,1,1,1.0436388,-19.214528,1.1,0.9,1.1,0.9
38,'            ',138.0,1,1,1,1,1.0432991,-18.273815,1.1,0.9,1.1,0.9
39,'            ',138.0,1,1,1,1,1.0470149,-17.461519,1.1,0.9,1.1,0.9
40,'            ',138.0,1,1,1,1,1.057344,-18.86559,1.1,0.9,1.1,0.9
41,'            ',345.0,1,1,1,1,1.0115282,-15.408623,1.1,0.9,1.1,0.9
42,'            ',138.0,1,1,1,1,1.0780657,-17.637076,1.1,0.9,1.1,0.9
43,'            ',345.0,1,1,1,1,1.015273,-15.242837,1.1,0.9,1.1,0.9
44,'            ',138.0,1,1,1,1,1.0657457,-18.511743,1.1,0.9,1.1,0.9
45,'            ',138.0,1,1,1,1,1.0381463,-18.78051,1.1,0.9,1.1,0.9
46,'            ',138.0,1,1,1,1,1.0479539,-18.640414,1.1,0.9,1.1,0.9
47,'            ',138.0,1,1,1,1,1.04824,-19.552169,1.1,0.9,1.1,0.9
48,'            ',138.0,1,1,1,1,1.0541801,-18.125872,1.1,0.9,1.1,0.9
49,'            ',138.0,1,1,1,1,1.0460277,-19.355711,1.1,0.9,1.1,0.9
50,'            ',138.0,1,1,1,1,1.0488586,-18.63155,1.1,0.9,1.1,0.9
51,'            ',138.0,1,1,1,1,1.0555759,-17.847861,1.1,0.9,1.1,0.9
52,'            ',345.0,1,1,1,1,1.0339587,-14.88402,1.1,0.9,1.1,0.9
53,'            ',138.0,1,1,1,1,1.0341857,-17.549782,1.1,0.9,1.1,0.9
54,'            ',345.0,1,1,1,1,1.0350599,-14.593419,1.1,0.9,1.1,0.9
55,'            ',138.0,1,1,1,1,1.0476275,-14.131953,1.1,0.9,1.1,0.9
56,'            ',138.0,1,1,1,1,1.0386414,-16.559804,1.1,0.9,1.1,0.9
57,'            ',138.0,1,1,1,1,1.0433975,-16.174875,1.1,0.9,1.1,0.9
58,'            ',138.0,1,1,1,1,1.0372452,-10.844505,1.1,0.9,1.1,0.9
59,'            ',138.0,1,1,1,1,1.0450248,-10.785367,1.1,0.9,1.1,0.9
60,'            ',138.0,1,1,1,1,1.0449206,-13.81885,1.1,0.9,1.1,0.9
61,'            ',138.0,1,1,1,1,1.0623749,-13.711581,1.1,0.9,1.1,0.9
62,'            ',138.0,1,1,1,1,1.0378154,-15.776416,1.1,0.9,1.1,0.9
63,'            ',138.0,1,1,1,1,1.0552643,-13.678673,1.1,0.9,1.1,0.9
64,'            ',138.0,1,1,1,1,1.0379035,-15.939417,1.1,0.9,1.1,0.9
65,'            ',138.0,1,1,1,1,1.053782,-15.491529,1.1,0.9,1.1,0.9
66,'            ',138.0,1,1,1,1,1.0417782,-16.15897,1.1,0.9,1.1,0.9
67,'            ',138.0,1,1,1,1,1.0429077,-8.612601,1.1,0.9,1.1,0.9
68,'            ',138.0,1,1,1,1,1.0466552,-7.0298468,1.1,0.9,1.1,0.9
69,'            ',138.0,1,1,1,1,1.0423987,-13.428683,1.1,0.9,1.1,0.9
70,'            ',138.0,1,1,1,1,1.0679369,-16.444938,1.1,0.9,1.1,0.9
71,'            ',138.0,1,1,1,1,1.0455838,-14.707377,1.1,0.9,1.1,0.9
72,'            ',138.0,1,1,1,1,1.0477938,-14.321174,1.1,0.9,1.1,0.9
73,'            ',138.0,1,1,1,1,1.044351,-13.44194,1.1,0.9,1.1,0.9
74,'            ',138.0,1,1,1,1,1.0469418,-12.112871,1.1,0.9,1.1,0.9
75,'            ',138.0,1,1,1,1,1.0451985,-12.907301,1.1,0.9,1.1,0.9
76,'            ',138.0,1,1,1,1,1.060138,-8.3686218,1.1,0.9,1.1,0.9
77,'            ',138.0,1,1,1,1,1.0479273,-10.703417,1.1,0.9,1.1,0.9
78,'            ',138.0,1,1,1,1,1.0489752,-10.124423,1.1,0.9,1.1,0.9
79,'            ',138.0,1,1,1,1,1.0510146,-10.204831,1.1,0.9,1.1,0.9
80,'            ',138.0,1,1,1,1,1.055475,-12.595177,1.1,0.9,1.1,0.9
81,'            ',138.0,1,1,1,1,1.0511711,-7.4410933,1.1,0.9,1.1,0.9
82,'            ',138.0,1,1,1,1,1.0358824,-9.4483474,1.1,0.9,1.1,0.9
83,'            ',138.0,1,1,1,1,1.0517535,-7.8731908,1.1,0.9,1.1,0.9
84,'            ',138.0,1,1,1,1,1.0504604,-8.3947063,1.1,0.9,1.1,0.9
85,'            ',138.0,1,1,1,1,1.0326368,-17.449347,1.1,0.9,1.1,0.9
86,'            ',138.0,1,1,1,1,1.0508801,-8.5189296,1.1,0.9,1.1,0.9
87,'            ',138.0,1,1,1,1,1.0517065,-7.7261064,1.1,0.9,1.1,0.9
88,'            ',138.0,1,1,1,1,1.0514445,-9.8103967,1.1,0.9,1.1,0.9
89,'            ',138.0,1,1,1,1,1.0471529,-8.8716137,1.1,0.9,1.1,0.9
90,'            ',345.0,1,1,1,1,1.0563025,-5.8005718,1.1,0.9,1.1,0.9
91,'            ',138.0,1,1,1,1,1.0545284,-7.1791,1.1,0.9,1.1,0.9
92,'            ',345.0,1,1,1,1,1.0560017,-5.8385382,1.1,0.9,1.1,0.9
93,'            ',138.0,1,1,1,1,1.0479451,-13.252679,1.1,0.9,1.1,0.9
94,'            ',138.0,1,1,1,1,1.0427105,-9.9841317,1.1,0.9,1.1,0.9
95,'            ',138.0,1,1,1,1,1.0396439,-10.64462,1.1,0.9,1.1,0.9
96,'            ',138.0,1,1,1,1,1.0563602,-12.840627,1.1,0.9,1.1,0.9
97,'            ',345.0,1,1,1,1,1.0562017,-6.6211496,1.1,0.9,1.1,0.9
98,'            ',138.0,1,1,1,1,1.0701075,-8.3235267,1.1,0.9,1.1,0.9
99,'            ',345.0,1,1,1,1,1.0557783,-6.6526852,1.1,0.9,1.1,0.9
100,'            ',138.0,1,1,1,1,1.0446455,-10.560405,1.1,0.9,1.1,0.9
101,'            ',138.0,1,1,1,1,1.0491931,-10.31047,1.1,0.9,1.1,0.9
102,'            ',138.0,1,1,1,1,1.0401778,-13.389228,1.1,0.9,1.1,0.9
103,'            ',138.0,1,1,1,1,1.0397407,-12.967607,1.1,0.9,1.1,0.9
104,'            ',138.0,1,1,1,1,1.0418386,-18.311763,1.1,0.9,1.1,0.9
105,'            ',138.0,1,1,1,1,1.037551,-10.535163,1.1,0.9,1.1,0.9
106,'            ',345.0,1,1,1,1,1.0315746,-7.8971741,1.1,0.9,1.1,0.9
107,'            ',138.0,1,1,1,1,1.0571033,-9.6863006,1.1,0.9,1.1,0.9
108,'            ',345.0,1,1,1,1,1.0329977,-7.7343803,1.1,0.9,1.1,0.9
109,'            ',138.0,1,1,1,1,1.0459093,-14.095041,1.1,0.9,1.1,0.9
110,'            ',138.0,1,1,1,1,1.0311588,-6.0854949,1.1,0.9,1.1,0.9
111,'            ',138.0,1,1,1,1,1.0226878,-7.4355559,1.1,0.9,1.1,0.9
112,'            ',138.0,1,1,1,1,1.0261892,-6.3436278,1.1,0.9,1.1,0.9
113,'            ',138.0,1,1,1,1,1.0309492,-5.4664651,1.1,0.9,1.1,0.9
114,'            ',138.0,1,1,1,1,1.0258118,-6.6062233,1.1,0.9,1.1,0.9
115,'            ',138.0,1,1,1,1,1.0451301,-11.474335,1.1,0.9,1.1,0.9
116,'            ',138.0,1,1,1,1,1.0504118,-12.990476,1.1,0.9,1.1,0.9
117,'            ',138.0,1,1,1,1,1.0428056,-11.815636,1.1,0.9,1.1,0.9
118,'            ',138.0,1,1,1,1,1.0551704,-15.380781,1.1,0.9,1.1,0.9
119,'            ',345.0,1,1,1,1,1.0481076,-10.29405,1.1,0.9,1.1,0.9
120,'            ',138.0,1,1,1,1,1.077641,-12.618939,1.1,0.9,1.1,0.9
121,'            ',345.0,1,1,1,1,1.0490169,-10.21519,1.1,0.9,1.1,0.9
122,'            ',138.0,1,1,1,1,1.0597713,-13.831463,1.1,0.9,1.1,0.9
123,'            ',138.0,1,1,1,1,1.0477059,-14.113452,1.1,0.9,1.1,0.9
124,'            ',138.0,1,1,1,1,1.0524202,-13.431989,1.1,0.9,1.1,0.9
125,'            ',138.0,1,1,1,1,1.043046,-14.570658,1.1,0.9,1.1,0.9
126,'            ',138.0,1,1,1,1,1.0524627,-11.060603,1.1,0.9,1.1,0.9
127,'            ',138.0,1,1,1,1,1.0428246,-18.585627,1.1,0.9,1.1,0.9
128,'            ',138.0,1,1,1,1,1.040883,-12.365347,1.1,0.9,1.1,0.9
129,'            ',138.0,1,1,1,1,1.0400619,-11.840459,1.1,0.9,1.1,0.9
130,'            ',138.0,1,1,1,1,1.0423624,-7.6060165,1.1,0.9,1.1,0.9
131,'            ',138.0,1,1,1,1,1.0471921,-12.647165,1.1,0.9,1.1,0.9
132,'            ',138.0,1,1,1,1,1.047424,-11.749671,1.1,0.9,1.1,0.9
133,'            ',138.0,1,1,1,1,1.0444957,-10.096355,1.1,0.9,1.1,0.9
134,'            ',138.0,1,1,1,1,1.0615582,-9.6725349,1.1,0.9,1.1,0.9
135,'            ',345.0,1,1,1,1,1.04,-7.531789,1.1,0.9,1.1,0.9
136,'            ',138.0,1,1,1,1,1.0730321,-9.0220855,1.1,0.9,1.1,0.9
137,'            ',345.0,1,1,1,1,1.0398552,-7.5514835,1.1,0.9,1.1,0.9
138,'            ',138.0,1,1,1,1,1.0551784,-14.911568,1.1,0.9,1.1,0.9
139,'            ',138.0,1,1,1,1,1.0491147,-8.805607,1.1,0.9,1.1,0.9
140,'            ',138.0,1,1,1,1,1.0412432,-9.8925294,1.1,0.9,1.1,0.9
141,'            ',138.0,1,1,1,1,1.0479704,-9.1157778,1.1,0.9,1.1,0.9
142,'            ',138.0,1,1,1,1,1.0406764,-10.716228,1.1,0.9,1.1,0.9
143,'            ',138.0,1,1,1,1,1.0464917,-8.5448051,1.1,0.9,1.1,0.9
144,'            ',138.0,1,1,1,1,1.0445952,-15.809664,1.1,0.9,1.1,0.9
145,'            ',138.0,1,1,1,1,1.0278139,-18.801335,1.1,0.9,1.1,0.9
146,'            ',138.0,1,1,1,1,1.0466133,-10.955569,1.1,0.9,1.1,0.9
147,'            ',138.0,1,1,1,1,1.0446594,-12.170107,1.1,0.9,1.1,0.9
148,'            ',138.0,1,1,1,1,1.0460722,-10.525857,1.1,0.9,1.1,0.9
149,'            ',138.0,1,1,1,1,1.0419017,-10.998329,1.1,0.9,1.1,0.9
150,'            ',138.0,1,1,1,1,1.0594705,-9.7690761,1.1,0.9,1.1,0.9
151,'            ',345.0,1,1,1,1,1.0486481,-7.2419298,1.1,0.9,1.1,0.9
152,'            ',138.0,1,1,1,1,1.0672295,-8.9693173,1.1,0.9,1.1,0.9
153,'            ',345.0,1,1,1,1,1.0481582,-7.2994893,1.1,0.9,1.1,0.9
154,'            ',138.0,1,1,1,1,1.0555472,-9.7898424,1.1,0.9,1.1,0.9
155,'            ',138.0,1,1,1,1,1.0560906,-10.012279,1.1,0.9,1.1,0.9
156,'            ',138.0,1,1,1,1,1.053955,-16.909503,1.1,0.9,1.1,0.9
157,'            ',138.0,1,1,1,1,1.0457277,-13.724898,1.1,0.9,1.1,0.9
158,'            ',138.0,1,1,1,1,1.05165,-14.020277,1.1,0.9,1.1,0.9
159,'            ',138.0,1,1,1,1,1.0477324,-8.7428628,1.1,0.9,1.1,0.9
160,'            ',138.0,1,1,1,1,1.0654434,-13.69665,1.1,0.9,1.1,0.9
161,'            ',138.0,1,1,1,1,1.0345161,-17.53915,1.1,0.9,1.1,0.9
162,'            ',138.0,1,1,1,1,1.0486103,-14.259313,1.1,0.9,1.1,0.9
163,'            ',138.0,1,1,1,1,1.0416026,-15.859589,1.1,0.9,1.1,0.9
164,'            ',138.0,1,1,1,1,1.0453654,-13.812842,1.1,0.9,1.1,0.9
165,'            ',138.0,1,1,1,1,1.0466898,-9.2136575,1.1,0.9,1.1,0.9
166,'            ',138.0,1,1,1,1,1.047288,-9.3101168,1.1,0.9,1.1,0.9
167,'            ',138.0,1,1,1,1,1.0399059,-14.667338,1.1,0.9,1.1,0.9
168,'            ',138.0,1,1,1,1,1.04,-17.860927,1.1,0.9,1.1,0.9
169,'            ',138.0,1,1,1,1,1.0327232,-10.863975,1.1,0.9,1.1,0.9
170,'            ',138.0,1,1,1,1,1.0398183,-9.7101407,1.1,0.9,1.1,0.9
171,'            ',138.0,1,1,1,1,1.0443588,-9.6676072,1.1,0.9,1.1,0.9
172,'            ',138.0,1,1,1,1,1.0263485,-12.414785,1.1,0.9,1.1,0.9
173,'            ',138.0,1,1,1,1,1.0280281,-12.902731,1.1,0.9,1.1,0.9
174,'            ',138.0,1,1,1,1,1.0401569,-9.7633327,1.1,0.9,1.1,0.9
175,'            ',138.0,1,1,1,1,1.0458727,-9.5302053,1.1,0.9,1.1,0.9
176,'            ',138.0,1,1,1,1,1.0415,-12.982773,1.1,0.9,1.1,0.9
177,'            ',138.0,1,1,1,1,1.0313564,-13.098768,1.1,0.9,1.1,0.9
178,'            ',138.0,1,1,1,1,1.0294684,-12.184061,1.1,0.9,1.1,0.9
179,'            ',138.0,1,1,1,1,1.044551,-8.3942427,1.1,0.9,1.1,0.9
180,'            ',138.0,1,1,1,1,1.0474062,-15.192769,1.1,0.9,1.1,0.9
181,'            ',138.0,1,1,1,1,1.0431748,-16.294109,1.1,0.9,1.1,0.9
182,'            ',138.0,1,1,1,1,1.0542802,-10.372346,1.1,0.9,1.1,0.9
183,'            ',138.0,1,1,1,1,1.0522197,-13.69815,1.1,0.9,1.1,0.9
184,'            ',138.0,1,1,1,1,1.0553292,-12.861247,1.1,0.9,1.1,0.9
185,'            ',138.0,1,1,1,1,1.0524955,-11.135535,1.1,0.9,1.1,0.9
186,'            ',138.0,1,1,1,1,1.0571093,-13.37349,1.1,0.9,1.1,0.9
187,'            ',138.0,1,1,1,1,1.0525458,-12.676462,1.1,0.9,1.1,0.9
188,'            ',138.0,1,1,1,1,1.0576995,-13.112761,1.1,0.9,1.1,0.9
189,'            ',138.0,1,1,1,1,1.0512819,-13.956326,1.1,0.9,1.1,0.9
190,'            ',345.0,1,1,1,1,1.0407564,-10.463733,1.1,0.9,1.1,0.9
191,'            ',138.0,1,1,1,1,1.0694433,-12.042024,1.1,0.9,1.1,0.9
192,'            ',345.0,1,1,1,1,1.0403308,-10.512338,1.1,0.9,1.1,0.9
193,'            ',138.0,1,1,1,1,1.0495012,-14.134197,1.1,0.9,1.1,0.9
194,'            ',138.0,1,1,1,1,1.0466288,-17.893638,1.1,0.9,1.1,0.9
195,'            ',138.0,1,1,1,1,1.0447598,-9.6560545,1.1,0.9,1.1,0.9
196,'            ',138.0,1,1,1,1,1.0284004,-7.0179451,1.1,0.9,1.1,0.9
197,'            ',138.0,1,1,1,1,1.0518068,-12.794156,1.1,0.9,1.1,0.9
198,'            ',138.0,1,1,1,1,1.0448541,-10.430428,1.1,0.9,1.1,0.9
199,'            ',138.0,1,1,1,1,1.0425586,-17.407189,1.1,0.9,1.1,0.9
200,'            ',138.0,1,1,1,1,1.04,-17.286078,1.1,0.9,1.1,0.9
...
0 / END OF BUS DATA BEGIN LOAD DATA
1,'1',1,1,1,21.622522,3.9905996,0.0,0.0,0.0,0.0,1,1,0
2,'1',1,1,1,64.039605,17.93214,0.0,0.0,0.0,0.0,1,1,0
3,'1',1,1,1,32.362228,7.4041503,0.0,0.0,0.0,0.0,1,1,0
4,'1',1,1,1,58.748081,2.5621166,0.0,0.0,0.0,0.0,1,1,0
5,'1',1,1,1,50.669442,8.6253967,0.0,0.0,0.0,0.0,1,1,0
6,'1',1,1,1,41.476908,3.6653602,0.0,0.0,0.0,0.0,1,1,0
7,'1',1,1,1,31.285648,10.8059,0.0,0.0,0.0,0.0,1,1,0
8,'1',1,1,1,49.552117,5.4155883,0.0,0.0,0.0,0.0,1,1,0
9,'1',1,1,1,15.246345,6.5482659,0.0,0.0,0.0,0.0,1,1,0
10,'1',1,1,1,31.392374,9.5737643,0.0,0.0,0.0,0.0,1,1,0
11,'1',1,1,1,11.756936,2.8624556,0.0,0.0,0.0,0.0,1,1,0
12,'1',1,1,1,29.794486,1.9614231,0.0,0.0,0.0,0.0,1,1,0
13,'1',1,1,1,40.7583,7.1395321,0.0,0.0,0.0,0.0,1,1,0
14,'1',1,1,1,81.489866,32.641642,0.0,0.0,0.0,0.0,1,1,0
15,'1',1,1,1,66.666002,8.0882012,0.0,0.0,0.0,0.0,1,1,0
16,'1',1,1,1,19.706297,7.1688968,0.0,0.0,0.0,0.0,1,1,0
17,'1',1,1,1,23.963183,9.7772522,0.0,0.0,0.0,0.0,1,1,0
18,'1',1,1,1,96.840426,24.903209,0.0,0.0,0.0,0.0,1,1,0
19,'1',1,1,1,40.568649,8.3421829,0.0,0.0,0.0,0.0,1,1,0
21,'1',1,1,1,38.127712,12.420986,0.0,0.0,0.0,0.0,1,1,0
23,'1',1,1,1,22.654175,4.8485026,0.0,0.0,0.0,0.0,1,1,0
24,'1',1,1,1,37.804792,23.648242,0.0,0.0,0.0,0.0,1,1,0
27,'1',1,1,1,87.17301,28.314501,0.0,0.0,0.0,0.0,1,1,0
28,'1',1,1,1,45.212942,15.233289,0.0,0.0,0.0,0.0,1,1,0
29,'1',1,1,1,34.125844,7.1623571,0.0,0.0,0.0,0.0,1,1,0
30,'1',1,1,1,36.187097,1.9069893,0.0,0.0,0.0,0.0,1,1,0
31,'1',1,1,1,65.395942,14.580415,0.0,0.0,0.0,0.0,1,1,0
32,'1',1,1,1,54.173322,18.494148,0.0,0.0,0.0,0.0,1,1,0
33,'1',1,1,1,117.77417,66.454061,0.0,0.0,0.0,0.0,1,1,0
34,'1',1,1,1,44.573314,9.4322999,0.0,0.0,0.0,0.0,1,1,0
35,'1',1,1,1,72.163606,7.6292648,0.0,0.0,0.0,0.0,1,1,0
36,'1',1,1,1,94.039608,35.691934,0.0,0.0,0.0,0.0,1,1,0
37,'1',1,1,1,112.20842,25.177038,0.0,0.0,0.0,0.0,1,1,0
38,'1',1,1,1,70.439992,14.979784,0.0,0.0,0.0,0.0,1,1,0
39,'1',1,1,1,80.05012,30.342797,0.0,0.0,0.0,0.0,1,1,0
40,'1',1,1,1,115.89557,14.21145,0.0,0.0,0.0,0.0,1,1,0
42,'1',1,1,1,64.213455,20.111057,0.0,0.0,0.0,0.0,1,1,0
44,'1',1,1,1,57.182061,3.6986085,0.0,0.0,0.0,0.0,1,1,0
45,'1',1,1,1,190.22618,11.618275,0.0,0.0,0.0,0.0,1,1,0
46,'1',1,1,1,76.388815,16.045063,0.0,0.0,0.0,0.0,1,1,0
47,'1',1,1,1,68.167996,7.1079389,0.0,0.0,0.0,0.0,1,1,0
48,'1',1,1,1,54.86427,5.384844,0.0,0.0,0.0,0.0,1,1,0
49,'1',1,1,1,81.895833,9.7352066,0.0,0.0,0.0,0.0,1,1,0
50,'1',1,1,1,57.62436,35.710221,0.0,0.0,0.0,0.0,1,1,0
51,'1',1,1,1,65.146432,14.266435,0.0,0.0,0.0,0.0,1,1,0
53,'1',1,1,1,120.7426,31.067694,0.0,0.0,0.0,0.0,1,1,0
55,'1',1,1,1,23.31591,2.5270295,0.0,0.0,0.0,0.0,1,1,0
56,'1',1,1,1,27.36603,2.8335941,0.0,0.0,0.0,0.0,1,1,0
57,'1',1,1,1,13.389153,4.1365763,0.0,0.0,0.0,0.0,1,1,0
58,'1',1,1,1,27.923407,22.829418,0.0,0.0,0.0,0.0,1,1,0
59,'1',1,1,1,29.374767,11.961295,0.0,0.0,0.0,0.0,1,1,0
60,'1',1,1,1,17.953778,7.1959698,0.0,0.0,0.0,0.0,1,1,0
61,'1',1,1,1,25.446604,5.5222675,0.0,0.0,0.0,0.0,1,1,0
62,'1',1,1,1,27.969371,3.4344786,0.0,0.0,0.0,0.0,1,1,0
63,'1',1,1,1,44.567643,10.658175,0.0,0.0,0.0,0.0,1,1,0
64,'1',1,1,1,22.439342,5.6850565,0.0,0.0,0.0,0.0,1,1,0
65,'1',1,1,1,45.900107,6.6019515,0.0,0.0,0.0,0.0,1,1,0
66,'1',1,1,1,25.056946,7.2533784,0.0,0.0,0.0,0.0,1,1,0
67,'1',1,1,1,22.215388,5.5794488,0.0,0.0,0.0,0.0,1,1,0
68,'1',1,1,1,20.590316,3.934334,0.0,0.0,0.0,0.0,1,1,0
69,'1',1,1,1,25.124123,6.3402972,0.0,0.0,0.0,0.0,1,1,0
70,'1',1,1,1,25.372376,2.5747715,0.0,0.0,0.0,0.0,1,1,0
71,'1',1,1,1,40.346627,5.6636814,0.0,0.0,0.0,0.0,1,1,0
72,'1',1,1,1,40.818269,7.1200089,0.0,0.0,0.0,0.0,1,1,0
73,'1',1,1,1,55.870139,8.2119841,0.0,0.0,0.0,0.0,1,1,0
74,'1',1,1,1,38.964624,16.502805,0.0,0.0,0.0,0.0,1,1,0
75,'1',1,1,1,30.396042,6.2654314,0.0,0.0,0.0,0.0,1,1,0
76,'1',1,1,1,29.897775,2.991251,0.0,0.0,0.0,0.0,1,1,0
77,'1',1,1,1,39.668285,12.691403,0.0,0.0,0.0,0.0,1,1,0
78,'1',1,1,1,45.479241,15.181568,0.0,0.0,0.0,0.0,1,1,0
79,'1',1,1,1,44.468475,8.9342954,0.0,0.0,0.0,0.0,1,1,0
80,'1',1,1,1,33.233571,15.286004,0.0,0.0,0.0,0.0,1,1,0
81,'1',1,1,1,38.734073,12.573496,0.0,0.0,0.0,0.0,1,1,0
82,'1',1,1,1,75.324031,16.280926,0.0,0.0,0.0,0.0,1,1,0
83,'1',1,1,1,56.84311,14.010741,0.0,0.0,0.0,0.0,1,1,0
84,'1',1,1,1,42.39656,8.7434958,0.0,0.0,0.0,0.0,1,1,0
85,'1',1,1,1,20.920519,7.8294313,0.0,0.0,0.0,0.0,1,1,0
86,'1',1,1,1,43.058618,7.870983,0.0,0.0,0.0,0.0,1,1,0
87,'1',1,1,1,45.723737,15.682111,0.0,0.0,0.0,0.0,1,1,0
88,'1',1,1,1,36.071432,7.6492569,0.0,0.0,0.0,0.0,1,1,0
89,'1',1,1,1,47.534835,11.11514,0.0,0.0,0.0,0.0,1,1,0
92,'1',1,1,1,69.358995,11.684259,0.0,0.0,0.0,0.0,1,1,0
93,'1',1,1,1,25.549126,3.3691025,0.0,0.0,0.0,0.0,1,1,0
94,'1',1,1,1,29.811465,3.917712,0.0,0.0,0.0,0.0,1,1,0
95,'1',1,1,1,27.857376,14.002195,0.0,0.0,0.0,0.0,1,1,0
96,'1',1,1,1,20.88962,3.9004571,0.0,0.0,0.0,0.0,1,1,0
99,'1',1,1,1,64.99336,25.45434,0.0,0.0,0.0,0.0,1,1,0
100,'1',1,1,1,28.263718,8.900801,0.0,0.0,0.0,0.0,1,1,0
101,'1',1,1,1,35.507569,17.989442,0.0,0.0,0.0,0.0,1,1,0
102,'1',1,1,1,18.257257,4.8882961,0.0,0.0,0.0,0.0,1,1,0
103,'1',1,1,1,24.143026,6.8943718,0.0,0.0,0.0,0.0,1,1,0
104,'1',1,1,1,16.568994,3.7988634,0.0,0.0,0.0,0.0,1,1,0
105,'1',1,1,1,26.352347,7.5532129,0.0,0.0,0.0,0.0,1,1,0
107,'1',1,1,1,64.991185,1.1525324,0.0,0.0,0.0,0.0,1,1,0
109,'1',1,1,1,38.932556,10.556632,0.0,0.0,0.0,0.0,1,1,0
110,'1',1,1,1,37.648132,5.7369032,0.0,0.0,0.0,0.0,1,1,0
111,'1',1,1,1,62.037764,13.534589,0.0,0.0,0.0,0.0,1,1,0
112,'1',1,1,1,67.928854,40.213996,0.0,0.0,0.0,0.0,1,1,0
113,'1',1,1,1,35.762043,14.478898,0.0,0.0,0.0,0.0,1,1,0
114,'1',1,1,1,24.966268,7.5895654,0.0,0.0,0.0,0.0,1,1,0
115,'1',1,1,1,50.869011,9.7398647,0.0,0.0,0.0,0.0,1,1,0
116,'1',1,1,1,61.681857,12.862558,0.0,0.0,0.0,0.0,1,1,0
117,'1',1,1,1,42.818348,4.8155284,0.0,0.0,0.0,0.0,1,1,0
118,'1',1,1,1,53.31869,6.5853758,0.0,0.0,0.0,0.0,1,1,0
120,'1',1,1,1,54.995184,14.955364,0.0,0.0,0.0,0.0,1,1,0
122,'1',1,1,1,38.274693,6.39751,0.0,0.0,0.0,0.0,1,1,0
123,'1',1,1,1,47.475768,22.683238,0.0,0.0,0.0,0.0,1,1,0
124,'1',1,1,1,65.115375,5.6986771,0.0,0.0,0.0,0.0,1,1,0
125,'1',1,1,1,54.210031,20.33573,0.0,0.0,0.0,0.0,1,1,0
126,'1',1,1,1,25.106296,2.538846,0.0,0.0,0.0,0.0,1,1,0
127,'1',1,1,1,17.233204,9.4824177,0.0,0.0,0.0,0.0,1,1,0
128,'1',1,1,1,22.303318,1.5101594,0.0,0.0,0.0,0.0,1,1,0
129,'1',1,1,1,34.643757,10.362689,0.0,0.0,0.0,0.0,1,1,0
130,'1',1,1,1,25.235509,11.169426,0.0,0.0,0.0,0.0,1,1,0
131,'1',1,1,1,21.714328,4.7432213,0.0,0.0,0.0,0.0,1,1,0
132,'1',1,1,1,36.059535,13.262153,0.0,0.0,0.0,0.0,1,1,0
133,'1',1,1,1,13.165921,6.030507,0.0,0.0,0.0,0.0,1,1,0
134,'1',1,1,1,28.914469,3.2362745,0.0,0.0,0.0,0.0,1,1,0
137,'1',1,1,1,33.184658,6.3757908,0.0,0.0,0.0,0.0,1,1,0
138,'1',1,1,1,41.653472,12.373578,0.0,0.0,0.0,0.0,1,1,0
139,'1',1,1,1,53.387642,10.592718,0.0,0.0,0.0,0.0,1,1,0
140,'1',1,1,1,44.555217,13.926271,0.0,0.0,0.0,0.0,1,1,0
141,'1',1,1,1,61.701222,30.57247,0.0,0.0,0.0,0.0,1,1,0
142,'1',1,1,1,18.80346,3.7058134,0.0,0.0,0.0,0.0,1,1,0
143,'1',1,1,1,31.004434,15.511176,0.0,0.0,0.0,0.0,1,1,0
144,'1',1,1,1,27.39432,6.4601394,0.0,0.0,0.0,0.0,1,1,0
145,'1',1,1,1,54.322432,20.653773,0.0,0.0,0.0,0.0,1,1,0
146,'1',1,1,1,31.343183,9.4073881,0.0,0.0,0.0,0.0,1,1,0
147,'1',1,1,1,43.05402,13.989282,0.0,0.0,0.0,0.0,1,1,0
148,'1',1,1,1,60.971782,29.352832,0.0,0.0,0.0,0.0,1,1,0
149,'1',1,1,1,76.24516,11.812327,0.0,0.0,0.0,0.0,1,1,0
150,'1',1,1,1,119.11477,37.038544,0.0,0.0,0.0,0.0,1,1,0
153,'1',1,1,1,114.51165,26.176492,0.0,0.0,0.0,0.0,1,1,0
154,'1',1,1,1,33.510356,6.6674648,0.0,0.0,0.0,0.0,1,1,0
155,'1',1,1,1,63.218284,10.439621,0.0,0.0,0.0,0.0,1,1,0
156,'1',1,1,1,49.175069,18.774526,0.0,0.0,0.0,0.0,1,1,0
157,'1',1,1,1,27.897174,19.134168,0.0,0.0,0.0,0.0,1,1,0
158,'1',1,1,1,60.419554,10.127076,0.0,0.0,0.0,0.0,1,1,0
159,'1',1,1,1,46.975013,9.2410783,0.0,0.0,0.0,0.0,1,1,0
160,'1',1,1,1,26.796941,10.89072,0.0,0.0,0.0,0.0,1,1,0
161,'1',1,1,1,17.605279,3.5065221,0.0,0.0,0.0,0.0,1,1,0
162,'1',1,1,1,15.664495,5.1886179,0.0,0.0,0.0,0.0,1,1,0
163,'1',1,1,1,23.679655,2.4923964,0.0,0.0,0.0,0.0,1,1,0
164,'1',1,1,1,23.017019,3.2766085,0.0,0.0,0.0,0.0,1,1,0
165,'1',1,1,1,82.30667,9.1694,0.0,0.0,0.0,0.0,1,1,0
166,'1',1,1,1,47.086715,10.418707,0.0,0.0,0.0,0.0,1,1,0
167,'1',1,1,1,27.72707,6.8185329,0.0,0.0,0.0,0.0,1,1,0
168,'1',1,1,1,54.63624,17.771493,0.0,0.0,0.0,0.0,1,1,0
169,'1',1,1,1,25.638957,13.688707,0.0,0.0,0.0,0.0,1,1,0
170,'1',1,1,1,59.234127,14.209384,0.0,0.0,0.0,0.0,1,1,0
171,'1',1,1,1,76.286167,20.641322,0.0,0.0,0.0,0.0,1,1,0
172,'1',1,1,1,48.484845,15.157053,0.0,0.0,0.0,0.0,1,1,0
173,'1',1,1,1,20.782843,2.7984739,0.0,0.0,0.0,0.0,1,1,0
174,'1',1,1,1,94.311486,47.828834,0.0,0.0,0.0,0.0,1,1,0
175,'1',1,1,1,79.723092,3.3179961,0.0,0.0,0.0,0.0,1,1,0
176,'1',1,1,1,58.185904,35.956534,0.0,0.0,0.0,0.0,1,1,0
177,'1',1,1,1,110.54847,18.077439,0.0,0.0,0.0,0.0,1,1,0
178,'1',1,1,1,144.75522,33.771799,0.0,0.0,0.0,0.0,1,1,0
179,'1',1,1,1,48.801117,13.482235,0.0,0.0,0.0,0.0,1,1,0
180,'1',1,1,1,32.000403,4.8441044,0.0,0.0,0.0,0.0,1,1,0
181,'1',1,1,1,35.976635,6.3604334,0.0,0.0,0.0,0.0,1,1,0
182,'1',1,1,1,71.383823,9.1560214,0.0,0.0,0.0,0.0,1,1,0
183,'1',1,1,1,63.607038,13.289028,0.0,0.0,0.0,0.0,1,1,0
184,'1',1,1,1,56.036427,23.12716,0.0,0.0,0.0,0.0,1,1,0
185,'1',1,1,1,64.46394,2.3763178,0.0,0.0,0.0,0.0,1,1,0
186,'1',1,1,1,54.669466,12.847859,0.0,0.0,0.0,0.0,1,1,0
187,'1',1,1,1,112.97011,50.496465,0.0,0.0,0.0,0.0,1,1,0
188,'1',1,1,1,40.54005,11.260937,0.0,0.0,0.0,0.0,1,1,0
189,'1',1,1,1,23.253691,2.1740562,0.0,0.0,0.0,0.0,1,1,0
192,'1',1,1,1,93.540844,22.577764,0.0,0.0,0.0,0.0,1,1,0
193,'1',1,1,1,55.188208,16.603346,0.0,0.0,0.0,0.0,1,1,0
194,'1',1,1,1,54.121278,12.997399,0.0,0.0,0.0,0.0,1,1,0
195,'1',1,1,1,62.458477,11.375047,0.0,0.0,0.0,0.0,1,1,0
196,'1',1,1,1,47.200812,8.9829473,0.0,0.0,0.0,0.0,1,1,0
197,'1',1,1,1,25.299037,4.7458247,0.0,0.0,0.0,0.0,1,1,0
198,'1',1,1,1,36.190468,13.696868,0.0,0.0,0.0,0.0,1,1,0
199,'1',1,1,1,46.649532,1.7531255,0.0,0.0,0.0,0.0,1,1,0
200,'1',1,1,1,46.536219,12.642107,0.0,0.0,0.0,0.0,1,1,0
201,'1',1,1,1,41.992671,5.969516,0.0,0.0,0.0,0.0,1,1,0
202,'1',1,1,1,55.334009,5.4834178,0.0,0.0,0.0,0.0,1,1,0
203,'1',1,1,1,68.687504,37.585374,0.0,0.0,0.0,0.0,1,1,0
204,'1',1,1,1,30.324999,8.0831274,0.0,0.0,0.0,0.0,1,1,0
205,'1',1,1,1,34.661184,26.038579,0.0,0.0,0.0,0.0,1,1,0
206,'1',1,1,1,23.718035,8.0678329,0.0,0.0,0.0,0.0,1,1,0
207,'1',1,1,1,57.793496,11.098751,0.0,0.0,0.0,0.0,1,1,0
208,'1',1,1,1,31.880943,6.1203318,0.0,0.0,0.0,0.0,1,1,0
209,'1',1,1,1,70.161735,9.6672511,0.0,0.0,0.0,0.0,1,1,0
210,'1',1,1,1,36.994397,12.4435,0.0,0.0,0.0,0.0,1,1,0
211,'1',1,1,1,43.138967,8.1395272,0.0,0.0,0.0,0.0,1,1,0
212,'1',1,1,1,31.383961,6.9166655,0.0,0.0,0.0,0.0,1,1,0
213,'1',1,1,1,69.498201,14.957284,0.0,0.0,0.0,0.0,1,1,0
214,'1',1,1,1,52.114541,24.443069,0.0,0.0,0.0,0.0,1,1,0
215,'1',1,1,1,33.512566,9.7234134,0.0,0.0,0.0,0.0,1,1,0
216,'1',1,1,1,41.68149,11.609722,0.0,0.0,0.0,0.0,1,1,0
217,'1',1,1,1,43.259955,16.192963,0.0,0.0,0.0,0.0,1,1,0
218,'1',1,1,1,42.679654,20.565797,0.0,0.0,0.0,0.0,1,1,0
219,'1',1,1,1,20.404458,5.0330196,0.0,0.0,0.0,0.0,1,1,0
220,'1',1,1,1,22.854987,7.8037574,0.0,0.0,0.0,0.0,1,1,0
221,'1',1,1,1,42.1778,7.5285618,0.0,0.0,0.0,0.0,1,1,0
222,'1',1,1,1,44.187607,11.655036,0.0,0.0,0.0,0.0,1,1,0
...
0 / END OF LOAD DATA BEGIN FIXED SHUNT DATA
59,'1',1,0.0,30.242
116,'1',1,0.0,27.226
132,'1',1,0.0,26.017
135,'1',1,0.0,42.791
138,'1',1,0.0,49.221
156,'1',1,0.0,52.222
176,'1',1,0.0,95.518
214,'1',1,0.0,100.39
218,'1',1,0.0,24.179
226,'1',1,0.0,15.602
235,'1',1,0.0,20.424
240,'1',1,0.0,29.599
245,'1',1,0.0,16.257
248,'1',1,0.0,37.204
259,'1',1,0.0,19.758
0 / END OF FIXED SHUNT DATA BEGIN GENERATOR DATA
272,'1',22.026,14.49296,18.01,-2.298,1.04,0,46.9,0.0,1.0,0.0,0.0,1.0,1,1.0,46.9,22.026,1,1.0,0,1.0,0,1.0,0,1.0,0,1.0
275,'1',453.51063,27.181906,326.858,-72.832,1.0118101,0,888.2,0.0,1.0,0.0,0.0,1.0,0,1.0,888.2,146.11,1,1.0,0,1.0,0,1.0,0,1.0,0,1.0
276,'1',888.2,82.356589,326.858,-72.832,1.018,0,888.2,0.0,1.0,0.0,0.0,1.0,1,1.0,888.2,398.234,1,1.0,0,1.0,0,1.0,0,1.0,0,1.0
277,'1',11.211621,-1.225,9.6,-1.225,1.0584833,0,25.0,0.0,1.0,0.0,0.0,1.0,0,1.0,25.0,8.382,1,1.0,0,1.0,0,1.0,0,1.0,0,1.0
277,'2',2.7160002,-1.225,9.6,-1.225,1.0584833,0,25.0,0.0,1.0,0.0,0.0,1.0,1,1.0,25.0,2.716,1,1.0,0,1.0,0,1.0,0,1.0,0,1.0
277,'3',9.6610002,-1.225,9.6,-1.225,1.0584833,0,25.0,0.0,1.0,0.0,0.0,1.0,1,1.0,25.0,9.661,1,1.0,0,1.0,0,1.0,0,1.0,0,1.0
277,'4',8.6510002,-1.225,9.6,-1.225,1.0584833,0,25.0,0.0,1.0,0.0,0.0,1.0,1,1.0,25.0,8.651,1,1.0,0,1.0,0,1.0,0,1.0,0,1.0
280,'1',158.7,61.38459,80.778,-17.616,1.0495,0,158.7,0.0,1.0,0.0,0.0,1.0,1,1.0,158.7,78.648,1,1.0,0,1.0,0,1.0,0,1.0,0,1.0
281,'1',84.496759,23.722667,80.778,-17.616,1.03828,0,158.7,0.0,1.0,0.0,0.0,1.0,0,1.0,158.7,68.611,1,1.0,0,1.0,0,1.0,0,1.0,0,1.0
284,'1',151.49,5.8392607,110.623,-24.124,1.0405,0,217.33,0.0,1.0,0.0,0.0,1.0,1,1.0,217.333,52.737,1,1.0,0,1.0,0,1.0,0,1.0,0,1.0
285,'1',106.24568,-1.5423608,110.623,-24.124,1.0391864,0,217.33,0.0,1.0,0.0,0.0,1.0,0,1.0,217.333,55.415,1,1.0,0,1.0,0,1.0,0,1.0,0,1.0
286,'1',128.48,4.6247018,110.623,-24.124,1.0405,0,217.33,0.0,1.0,0.0,0.0,1.0,1,1.0,217.333,69.243,1,1.0,0,1.0,0,1.0,0,1.0,0,1.0
287,'1',95.85214,-1.7425047,110.623,-24.124,1.0391864,0,217.33,0.0,1.0,0.0,0.0,1.0,0,1.0,217.333,64.598,1,1.0,0,1.0,0,1.0,0,1.0,0,1.0
288,'1',85.41,3.8845094,110.623,-24.124,1.0405,0,217.33,0.0,1.0,0.0,0.0,1.0,1,1.0,217.333,52.424,1,1.0,0,1.0,0,1.0,0,1.0,0,1.0
289,'1',103.93117,-2.1478481,110.623,-24.124,1.0391864,0,217.33,0.0,1.0,0.0,0.0,1.0,0,1.0,217.333,27.479,1,1.0,0,1.0,0,1.0,0,1.0,0,1.0
292,'1',0.06836426,0.094244035,0.192,-0.025,1.0435827,0,0.5,0.0,1.0,0.0,0.0,1.0,0,1.0,0.5,0.06,1,1.0,0,1.0,0,1.0,0,1.0,0,1.0
292,'2',0.19241449,0.18672824,0.192,-0.025,1.0435827,0,0.5,0.0,1.0,0.0,0.0,1.0,0,1.0,0.5,0.126,1,1.0,0,1.0,0,1.0,0,1.0,0,1.0
294,'1',18.0,-1.998,9.162,-1.998,1.0483421,0,18.0,0.0,1.0,0.0,0.0,1.0,1,1.0,18.0,5.517,1,1.0,0,1.0,0,1.0,0,1.0,0,1.0
297,'1',140.19,-11.33816,90.84,-19.81,1.063,0,178.47,0.0,1.0,0.0,0.0,1.0,1,1.0,178.467,82.766,1,1.0,0,1.0,0,1.0,0,1.0,0,1.0
298,'1',125.07715,-5.5271713,90.84,-19.81,1.0656445,0,178.47,0.0,1.0,0.0,0.0,1.0,0,1.0,178.467,86.66,1,1.0,0,1.0,0,1.0,0,1.0,0,1.0
299,'1',178.467,-13.322456,90.84,-19.81,1.063,0,178.47,0.0,1.0,0.0,0.0,1.0,1,1.0,178.467,63.99,1,1.0,0,1.0,0,1.0,0,1.0,0,1.0
300,'1',155.5,-2.9828397,90.84,-19.81,1.063,0,178.47,0.0,1.0,0.0,0.0,1.0,1,1.0,178.467,63.655,1,1.0,0,1.0,0,1.0,0,1.0,0,1.0
301,'1',120.65559,-6.3127876,90.84,-19.81,1.0656445,0,178.47,0.0,1.0,0.0,0.0,1.0,0,1.0,178.467,54.225,1,1.0,0,1.0,0,1.0,0,1.0,0,1.0
302,'1',85.112663,-10.829394,90.84,-19.81,1.0656445,0,178.47,0.0,1.0,0.0,0.0,1.0,0,1.0,178.467,63.864,1,1.0,0,1.0,0,1.0,0,1.0,0,1.0
303,'1',16.712,-3.3079999,25.92,-3.308,1.0605776,0,67.5,0.0,1.0,0.0,0.0,1.0,1,1.0,67.5,16.712,1,1.0,0,1.0,0,1.0,0,1.0,0,1.0
303,'2',35.659551,-3.308,25.92,-3.308,1.0605776,0,67.5,0.0,1.0,0.0,0.0,1.0,0,1.0,67.5,13.758,1,1.0,0,1.0,0,1.0,0,1.0,0,1.0
306,'1',3.4216553,-0.854,3.262,-0.854,1.0589593,0,7.0,0.0,1.0,0.0,0.0,1.0,0,1.0,7.0,1.745,1,1.0,0,1.0,0,1.0,0,1.0,0,1.0
306,'2',0.78200005,-0.854,3.262,-0.854,1.0589593,0,7.0,0.0,1.0,0.0,0.0,1.0,1,1.0,7.0,0.782,1,1.0,0,1.0,0,1.0,0,1.0,0,1.0
307,'1',11.636,3.2094664,12.941,-1.651,1.04,0,33.7,0.0,1.0,0.0,0.0,1.0,1,1.0,33.7,11.636,1,1.0,0,1.0,0,1.0,0,1.0,0,1.0
307,'2',14.91187,-0.16095436,12.941,-1.651,1.04,0,33.7,0.0,1.0,0.0,0.0,1.0,0,1.0,33.7,14.719,1,1.0,0,1.0,0,1.0,0,1.0,0,1.0
307,'3',6.9520002,3.2094664,12.941,-1.651,1.04,0,33.7,0.0,1.0,0.0,0.0,1.0,1,1.0,33.7,6.952,1,1.0,0,1.0,0,1.0,0,1.0,0,1.0
311,'1',709.48646,-42.385825,428.597,-95.503,1.0068034,0,1164.67,0.0,1.0,0.0,0.0,1.0,0,1.0,1164.667,186.084,1,1.0,0,1.0,0,1.0,0,1.0,0,1.0
312,'1',1164.667,-34.548621,428.597,-95.503,1.0045,0,1164.67,0.0,1.0,0.0,0.0,1.0,1,1.0,1164.667,454.387,1,1.0,0,1.0,0,1.0,0,1.0,0,1.0
313,'1',1164.667,19.045996,428.597,-95.503,1.0045,0,1164.67,0.0,1.0,0.0,0.0,1.0,1,1.0,1164.667,448.244,1,1.0,0,1.0,0,1.0,0,1.0,0,1.0
316,'1',142.367,11.162344,169.302,-36.92,1.0495,0,332.62,0.0,1.0,0.0,0.0,1.0,1,1.0,332.617,142.367,1,1.0,0,1.0,0,1.0,0,1.0,0,1.0
317,'1',98.509103,11.496476,169.302,-36.92,1.0455936,0,332.62,0.0,1.0,0.0,0.0,1.0,0,1.0,332.617,38.676,1,1.0,0,1.0,0,1.0,0,1.0,0,1.0
318,'1',96.08,14.728545,169.302,-36.92,1.0495,0,332.62,0.0,1.0,0.0,0.0,1.0,1,1.0,332.617,36.952,1,1.0,0,1.0,0,1.0,0,1.0,0,1.0
319,'1',135.11,19.741651,169.302,-36.92,1.0495,0,332.62,0.0,1.0,0.0,0.0,1.0,1,1.0,332.617,85.73,1,1.0,0,1.0,0,1.0,0,1.0,0,1.0
320,'1',211.4,15.89443,169.302,-36.92,1.0495,0,332.62,0.0,1.0,0.0,0.0,1.0,1,1.0,332.617,130.581,1,1.0,0,1.0,0,1.0,0,1.0,0,1.0
321,'1',91.256306,10.309627,169.302,-36.92,1.0455936,0,332.62,0.0,1.0,0.0,0.0,1.0,0,1.0,332.617,84.68,1,1.0,0,1.0,0,1.0,0,1.0,0,1.0
324,'1',59.055294,17.214107,61.08,-13.32,1.0458803,0,120.0,0.0,1.0,0.0,0.0,1.0,0,1.0,120.0,31.702,1,1.0,0,1.0,0,1.0,0,1.0,0,1.0
325,'1',120.0,21.212643,61.08,-13.32,1.054,0,120.0,0.0,1.0,0.0,0.0,1.0,1,1.0,120.0,52.66,1,1.0,0,1.0,0,1.0,0,1.0,0,1.0
326,'1',71.98314,14.933015,61.08,-13.32,1.0458803,0,120.0,0.0,1.0,0.0,0.0,1.0,0,1.0,120.0,57.831,1,1.0,0,1.0,0,1.0,0,1.0,0,1.0
327,'1',120.0,18.887325,61.08,-13.32,1.054,0,120.0,0.0,1.0,0.0,0.0,1.0,1,1.0,120.0,55.972,1,1.0,0,1.0,0,1.0,0,1.0,0,1.0
328,'1',120.0,23.034767,61.08,-13.32,1.054,0,120.0,0.0,1.0,0.0,0.0,1.0,1,1.0,120.0,48.448,1,1.0,0,1.0,0,1.0,0,1.0,0,1.0
329,'1',120.0,21.135037,61.08,-13.32,1.054,0,120.0,0.0,1.0,0.0,0.0,1.0,1,1.0,120.0,20.655,1,1.0,0,1.0,0,1.0,0,1.0,0,1.0
330,'1',0.48473065,-0.122,0.466,-0.122,1.0479621,0,1.0,0.0,1.0,0.0,0.0,1.0,0,1.0,1.0,0.259,1,1.0,0,1.0,0,1.0,0,1.0,0,1.0
330,'2',0.143,-0.122,0.466,-0.122,1.0479621,0,1.0,0.0,1.0,0.0,0.0,1.0,1,1.0,1.0,0.143,1,1.0,0,1.0,0,1.0,0,1.0,0,1.0
330,'3',0.348,-0.122,0.466,-0.122,1.0479621,0,1.0,0.0,1.0,0.0,0.0,1.0,1,1.0,1.0,0.348,1,1.0,0,1.0,0,1.0,0,1.0,0,1.0
330,'4',0.409,-0.122,0.466,-0.122,1.0479621,0,1.0,0.0,1.0,0.0,0.0,1.0,1,1.0,1.0,0.409,1,1.0,0,1.0,0,1.0,0,1.0,0,1.0
334,'1',22.857587,-8.418,32.154,-8.418,1.0579337,0,69.0,0.0,1.0,0.0,0.0,1.0,0,1.0,69.0,15.846,1,1.0,0,1.0,0,1.0,0,1.0,0,1.0
335,'1',12.549,-8.418,32.154,-8.418,1.051747,0,69.0,0.0,1.0,0.0,0.0,1.0,1,1.0,69.0,12.549,1,1.0,0,1.0,0,1.0,0,1.0,0,1.0
338,'1',160.88361,29.580702,119.539,-26.068,1.0485188,0,234.85,0.0,1.0,0.0,0.0,1.0,0,1.0,234.85,113.344,1,1.0,0,1.0,0,1.0,0,1.0,0,1.0
339,'1',151.79,38.380789,119.539,-26.068,1.0585,0,234.85,0.0,1.0,0.0,0.0,1.0,1,1.0,234.85,96.41,1,1.0,0,1.0,0,1.0,0,1.0,0,1.0
340,'1',234.85,38.28071,119.539,-26.068,1.0585,0,234.85,0.0,1.0,0.0,0.0,1.0,1,1.0,234.85,83.983,1,1.0,0,1.0,0,1.0,0,1.0,0,1.0
341,'1',178.45,29.599418,119.539,-26.068,1.0585,0,234.85,0.0,1.0,0.0,0.0,1.0,1,1.0,234.85,93.839,1,1.0,0,1.0,0,1.0,0,1.0,0,1.0
343,'1',64.814646,2.4566846,83.569,-21.879,1.0486923,0,179.33,0.0,1.0,0.0,0.0,1.0,0,1.0,179.333,41.662,1,1.0,0,1.0,0,1.0,0,1.0,0,1.0
344,'1',38.561,7.5276493,83.569,-21.879,1.054,0,179.33,0.0,1.0,0.0,0.0,1.0,1,1.0,179.333,38.561,1,1.0,0,1.0,0,1.0,0,1.0,0,1.0
345,'1',80.146,9.0691087,83.569,-21.879,1.054,0,179.33,0.0,1.0,0.0,0.0,1.0,1,1.0,179.333,80.146,1,1.0,0,1.0,0,1.0,0,1.0,0,1.0
346,'1',48.5,-5.384,24.687,-5.384,1.056751,0,48.5,0.0,1.0,0.0,0.0,1.0,1,1.0,48.5,17.591,1,1.0,0,1.0,0,1.0,0,1.0,0,1.0
346,'2',31.511351,-5.384,24.687,-5.384,1.056751,0,48.5,0.0,1.0,0.0,0.0,1.0,0,1.0,48.5,22.675,1,1.0,0,1.0,0,1.0,0,1.0,0,1.0
347,'1',36.562,10.839573,28.8,-3.675,1.04,0,75.0,0.0,1.0,0.0,0.0,1.0,1,1.0,75.0,36.562,1,1.0,0,1.0,0,1.0,0,1.0,0,1.0
347,'2',33.345,10.839573,28.8,-3.675,1.04,0,75.0,0.0,1.0,0.0,0.0,1.0,1,1.0,75.0,33.345,1,1.0,0,1.0,0,1.0,0,1.0,0,1.0
347,'3',29.918,10.839573,28.8,-3.675,1.04,0,75.0,0.0,1.0,0.0,0.0,1.0,1,1.0,75.0,29.918,1,1.0,0,1.0,0,1.0,0,1.0,0,1.0
350,'1',6.6760002,-1.411,11.059,-1.411,1.0595731,0,28.8,0.0,1.0,0.0,0.0,1.0,1,1.0,28.8,6.676,1,1.0,0,1.0,0,1.0,0,1.0,0,1.0
351,'1',14.185,-1.411,11.059,-1.411,1.0565833,0,28.8,0.0,1.0,0.0,0.0,1.0,1,1.0,28.8,14.185,1,1.0,0,1.0,0,1.0,0,1.0,0,1.0
351,'2',11.192,-1.411,11.059,-1.411,1.0565833,0,28.8,0.0,1.0,0.0,0.0,1.0,1,1.0,28.8,11.192,1,1.0,0,1.0,0,1.0,0,1.0,0,1.0
351,'3',10.034,-1.411,11.059,-1.411,1.0565833,0,28.8,0.0,1.0,0.0,0.0,1.0,1,1.0,28.8,10.034,1,1.0,0,1.0,0,1.0,0,1.0,0,1.0
354,'1',110.0,-12.21,55.99,-12.21,1.0389137,0,110.0,0.0,1.0,0.0,0.0,1.0,1,1.0,110.0,33.177,1,1.0,0,1.0,0,1.0,0,1.0,0,1.0
356,'1',13.679,-1.486,11.648,-1.486,1.0472441,0,30.33,0.0,1.0,0.0,0.0,1.0,1,1.0,30.333,13.679,1,1.0,0,1.0,0,1.0,0,1.0,0,1.0
356,'2',5.6250002,-1.486,11.648,-1.486,1.0472441,0,30.33,0.0,1.0,0.0,0.0,1.0,1,1.0,30.333,5.625,1,1.0,0,1.0,0,1.0,0,1.0,0,1.0
356,'3',12.388,-1.486,11.648,-1.486,1.0472441,0,30.33,0.0,1.0,0.0,0.0,1.0,1,1.0,30.333,12.388,1,1.0,0,1.0,0,1.0,0,1.0,0,1.0
357,'1',6.1740002,-2.5859997,9.879,-2.586,1.0685343,0,21.2,0.0,1.0,0.0,0.0,1.0,1,1.0,21.2,6.174,1,1.0,0,1.0,0,1.0,0,1.0,0,1.0
358,'1',25.308924,-2.58,20.218,-2.58,1.0386546,0,52.65,0.0,1.0,0.0,0.0,1.0,0,1.0,52.65,20.275,1,1.0,0,1.0,0,1.0,0,1.0,0,1.0
358,'2',25.147,-2.58,20.218,-2.58,1.0386546,0,52.65,0.0,1.0,0.0,0.0,1.0,1,1.0,52.65,25.147,1,1.0,0,1.0,0,1.0,0,1.0,0,1.0
358,'3',19.396,-2.58,20.218,-2.58,1.0386546,0,52.65,0.0,1.0,0.0,0.0,1.0,1,1.0,52.65,19.396,1,1.0,0,1.0,0,1.0,0,1.0,0,1.0
358,'4',15.946,-2.58,20.218,-2.58,1.0386546,0,52.65,0.0,1.0,0.0,0.0,1.0,1,1.0,52.65,15.946,1,1.0,0,1.0,0,1.0,0,1.0,0,1.0
359,'1',27.6,-3.064,14.048,-3.064,1.0469046,0,27.6,0.0,1.0,0.0,0.0,1.0,1,1.0,27.6,11.587,1,1.0,0,1.0,0,1.0,0,1.0,0,1.0
359,'2',27.6,-3.064,14.048,-3.064,1.0469046,0,27.6,0.0,1.0,0.0,0.0,1.0,1,1.0,27.6,13.293,1,1.0,0,1.0,0,1.0,0,1.0,0,1.0
362,'1',78.707,235.72813,328.763,-86.071,1.065,0,705.5,0.0,1.0,0.0,0.0,1.0,1,1.0,705.5,78.707,1,1.0,0,1.0,0,1.0,0,1.0,0,1.0
363,'1',131.58436,-58.274843,328.763,-86.071,1.0488841,0,705.5,0.0,1.0,0.0,0.0,1.0,0,1.0,705.5,78.191,1,1.0,0,1.0,0,1.0,0,1.0,0,1.0
364,'1',305.55217,-32.845733,328.763,-86.071,1.0488841,0,705.5,0.0,1.0,0.0,0.0,1.0,0,1.0,705.5,259.966,1,1.0,0,1.0,0,1.0,0,1.0,0,1.0
365,'1',286.113,-52.125728,328.763,-86.071,1.04,0,705.5,0.0,1.0,0.0,0.0,1.0,1,1.0,705.5,286.113,1,1.0,0,1.0,0,1.0,0,1.0,0,1.0
367,'1',2.2290002,-1.005,7.872,-1.005,1.0417665,0,20.5,0.0,1.0,0.0,0.0,1.0,1,1.0,20.5,2.229,1,1.0,0,1.0,0,1.0,0,1.0,0,1.0
368,'1',9.0510002,-1.005,7.872,-1.005,1.0404061,0,20.5,0.0,1.0,0.0,0.0,1.0,1,1.0,20.5,9.051,1,1.0,0,1.0,0,1.0,0,1.0,0,1.0
368,'2',6.3200002,-1.005,7.872,-1.005,1.0404061,0,20.5,0.0,1.0,0.0,0.0,1.0,1,1.0,20.5,6.32,1,1.0,0,1.0,0,1.0,0,1.0,0,1.0
369,'1',12.28816,7.872,7.872,-1.005,0.98283799,0,20.5,0.0,1.0,0.0,0.0,1.0,0,1.0,20.5,9.565,1,1.0,0,1.0,0,1.0,0,1.0,0,1.0
371,'1',73.732,-34.672,132.437,-34.672,1.040055,0,284.2,0.0,1.0,0.0,0.0,1.0,1,1.0,284.2,73.732,1,1.0,0,1.0,0,1.0,0,1.0,0,1.0
372,'1',168.24415,-13.050035,132.437,-34.672,1.0512786,0,284.2,0.0,1.0,0.0,0.0,1.0,0,1.0,284.2,133.898,1,1.0,0,1.0,0,1.0,0,1.0,0,1.0
375,'1',25.0,-0.69818303,12.725,-2.775,1.04,0,25.0,0.0,1.0,0.0,0.0,1.0,1,1.0,25.0,6.759,1,1.0,0,1.0,0,1.0,0,1.0,0,1.0
378,'1',132.09,-21.768103,117.973,-25.727,1.0045,0,231.77,0.0,1.0,0.0,0.0,1.0,1,1.0,231.775,65.628,1,1.0,0,1.0,0,1.0,0,1.0,0,1.0
379,'1',99.680001,-12.03423,117.973,-25.727,1.0045,0,231.77,0.0,1.0,0.0,0.0,1.0,1,1.0,231.775,66.661,1,1.0,0,1.0,0,1.0,0,1.0,0,1.0
380,'1',151.48,-12.422823,117.973,-25.727,1.0045,0,231.77,0.0,1.0,0.0,0.0,1.0,1,1.0,231.775,31.037,1,1.0,0,1.0,0,1.0,0,1.0,0,1.0
381,'1',137.25,-16.189466,117.973,-25.727,1.0045,0,231.77,0.0,1.0,0.0,0.0,1.0,1,1.0,231.775,113.618,1,1.0,0,1.0,0,1.0,0,1.0,0,1.0
382,'1',3.6618745,-0.363,2.842,-0.363,1.0441069,0,7.4,0.0,1.0,0.0,0.0,1.0,0,1.0,7.4,3.554,1,1.0,0,1.0,0,1.0,0,1.0,0,1.0
382,'2',2.925,-0.363,2.842,-0.363,1.0441069,0,7.4,0.0,1.0,0.0,0.0,1.0,1,1.0,7.4,2.925,1,1.0,0,1.0,0,1.0,0,1.0,0,1.0
382,'3',0.87800005,-0.363,2.842,-0.363,1.0441069,0,7.4,0.0,1.0,0.0,0.0,1.0,1,1.0,7.4,0.878,1,1.0,0,1.0,0,1.0,0,1.0,0,1.0
382,'4',2.193,-0.363,2.842,-0.363,1.0441069,0,7.4,0.0,1.0,0.0,0.0,1.0,1,1.0,7.4,2.193,1,1.0,0,1.0,0,1.0,0,1.0,0,1.0
384,'1',5.8747853,-0.735,5.76,-0.735,1.0427913,0,15.0,0.0,1.0,0.0,0.0,1.0,0,1.0,15.0,5.179,1,1.0,0,1.0,0,1.0,0,1.0,0,1.0
384,'2',7.3350001,-0.735,5.76,-0.735,1.0427913,0,15.0,0.0,1.0,0.0,0.0,1.0,1,1.0,15.0,7.335,1,1.0,0,1.0,0,1.0,0,1.0,0,1.0
384,'3',3.1460001,-0.735,5.76,-0.735,1.0427913,0,15.0,0.0,1.0,0.0,0.0,1.0,1,1.0,15.0,3.146,1,1.0,0,1.0,0,1.0,0,1.0,0,1.0
384,'4',2.3780001,-0.735,5.76,-0.735,1.0427913,0,15.0,0.0,1.0,0.0,0.0,1.0,1,1.0,15.0,2.378,1,1.0,0,1.0,0,1.0,0,1.0,0,1.0
386,'1',30.699418,-3.299,25.856,-3.299,1.0515408,0,67.33,0.0,1.0,0.0,0.0,1.0,0,1.0,67.333,27.475,1,1.0,0,1.0,0,1.0,0,1.0,0,1.0
386,'2',30.139,-3.299,25.856,-3.299,1.0515408,0,67.33,0.0,1.0,0.0,0.0,1.0,1,1.0,67.333,30.139,1,1.0,0,1.0,0,1.0,0,1.0,0,1.0
386,'3',11.032,-3.299,25.856,-3.299,1.0515408,0,67.33,0.0,1.0,0.0,0.0,1.0,1,1.0,67.333,11.032,1,1.0,0,1.0,0,1.0,0,1.0,0,1.0
386,'4',33.809346,-3.299,25.856,-3.299,1.0515408,0,67.33,0.0,1.0,0.0,0.0,1.0,0,1.0,67.333,25.208,1,1.0,0,1.0,0,1.0,0,1.0,0,1.0
386,'5',35.194509,-3.299,25.856,-3.299,1.0515408,0,67.33,0.0,1.0,0.0,0.0,1.0,0,1.0,67.333,12.595,1,1.0,0,1.0,0,1.0,0,1.0,0,1.0
386,'6',7.4680005,-3.299,25.856,-3.299,1.0515408,0,67.33,0.0,1.0,0.0,0.0,1.0,1,1.0,67.333,7.468,1,1.0,0,1.0,0,1.0,0,1.0,0,1.0
391,'1',141.5,72.023,72.023,-15.707,0.99475556,0,141.5,0.0,1.0,0.0,0.0,1.0,1,1.0,141.5,37.246,1,1.0,0,1.0,0,1.0,0,1.0,0,1.0
392,'1',67.871938,71.235838,72.023,-15.707,0.97433433,0,141.5,0.0,1.0,0.0,0.0,1.0,0,1.0,141.5,45.823,1,1.0,0,1.0,0,1.0,0,1.0,0,1.0
393,'1',91.743984,72.023,72.023,-15.707,0.96873471,0,141.5,0.0,1.0,0.0,0.0,1.0,0,1.0,141.5,59.806,1,1.0,0,1.0,0,1.0,0,1.0,0,1.0
394,'1',141.5,72.023,72.023,-15.707,0.99621445,0,141.5,0.0,1.0,0.0,0.0,1.0,1,1.0,141.5,46.001,1,1.0,0,1.0,0,1.0,0,1.0,0,1.0
395,'1',8.6600002,11.328,11.328,-1.445,1.0399849,0,29.5,0.0,1.0,0.0,0.0,1.0,1,1.0,29.5,8.66,1,1.0,0,1.0,0,1.0,0,1.0,0,1.0
395,'2',14.002,11.328,11.328,-1.445,1.0399849,0,29.5,0.0,1.0,0.0,0.0,1.0,1,1.0,29.5,14.002,1,1.0,0,1.0,0,1.0,0,1.0,0,1.0
396,'1',14.604,-1.445,11.328,-1.445,1.0642324,0,29.5,0.0,1.0,0.0,0.0,1.0,1,1.0,29.5,14.604,1,1.0,0,1.0,0,1.0,0,1.0,0,1.0
396,'2',8.2119956,-1.445,11.328,-1.445,1.0642324,0,29.5,0.0,1.0,0.0,0.0,1.0,0,1.0,29.5,7.512,1,1.0,0,1.0,0,1.0,0,1.0,0,1.0
396,'3',6.1810002,-1.445,11.328,-1.445,1.0642324,0,29.5,0.0,1.0,0.0,0.0,1.0,1,1.0,29.5,6.181,1,1.0,0,1.0,0,1.0,0,1.0,0,1.0
396,'4',13.848,-1.445,11.328,-1.445,1.0642324,0,29.5,0.0,1.0,0.0,0.0,1.0,1,1.0,29.5,13.848,1,1.0,0,1.0,0,1.0,0,1.0,0,1.0
398,'1',79.333,1.987729,40.381,-8.806,1.037,0,79.33,0.0,1.0,0.0,0.0,1.0,1,1.0,79.333,28.412,1,1.0,0,1.0,0,1.0,0,1.0,0,1.0
398,'2',79.333,1.987729,40.381,-8.806,1.037,0,79.33,0.0,1.0,0.0,0.0,1.0,1,1.0,79.333,26.903,1,1.0,0,1.0,0,1.0,0,1.0,0,1.0
398,'3',79.333,1.987729,40.381,-8.806,1.037,0,79.33,0.0,1.0,0.0,0.0,1.0,1,1.0,79.333,17.147,1,1.0,0,1.0,0,1.0,0,1.0,0,1.0
398,'4',45.69548,2.7668436,40.381,-8.806,1.037,0,79.33,0.0,1.0,0.0,0.0,1.0,0,1.0,79.333,18.276,1,1.0,0,1.0,0,1.0,0,1.0,0,1.0
398,'5',79.333,1.987729,40.381,-8.806,1.037,0,79.33,0.0,1.0,0.0,0.0,1.0,1,1.0,79.333,31.607,1,1.0,0,1.0,0,1.0,0,1.0,0,1.0
398,'6',79.333,1.987729,40.381,-8.806,1.037,0,79.33,0.0,1.0,0.0,0.0,1.0,1,1.0,79.333,27.502,1,1.0,0,1.0,0,1.0,0,1.0,0,1.0
399,'1',0.22600001,-0.074,0.576,-0.074,1.0521656,0,1.5,0.0,1.0,0.0,0.0,1.0,1,1.0,1.5,0.226,1,1.0,0,1.0,0,1.0,0,1.0,0,1.0
399,'2',1.1397061,-0.074,0.576,-0.074,1.0521656,0,1.5,0.0,1.0,0.0,0.0,1.0,0,1.0,1.5,0.589,1,1.0,0,1.0,0,1.0,0,1.0,0,1.0
401,'1',35.642132,-6.799,31.176,-6.799,1.0518308,0,61.25,0.0,1.0,0.0,0.0,1.0,0,1.0,61.25,22.338,1,1.0,0,1.0,0,1.0,0,1.0,0,1.0
402,'1',61.25,-6.799,31.176,-6.799,1.0419289,0,61.25,0.0,1.0,0.0,0.0,1.0,1,1.0,61.25,23.864,1,1.0,0,1.0,0,1.0,0,1.0,0,1.0
404,'1',25.119259,-2.083,16.32,-2.083,1.0547852,0,42.5,0.0,1.0,0.0,0.0,1.0,0,1.0,42.5,19.52,1,1.0,0,1.0,0,1.0,0,1.0,0,1.0
404,'2',15.533,-2.083,16.32,-2.083,1.0547852,0,42.5,0.0,1.0,0.0,0.0,1.0,1,1.0,42.5,15.533,1,1.0,0,1.0,0,1.0,0,1.0,0,1.0
404,'3',13.013,-2.083,16.32,-2.083,1.0547852,0,42.5,0.0,1.0,0.0,0.0,1.0,1,1.0,42.5,13.013,1,1.0,0,1.0,0,1.0,0,1.0,0,1.0
404,'4',12.661,-2.083,16.32,-2.083,1.0547852,0,42.5,0.0,1.0,0.0,0.0,1.0,1,1.0,42.5,12.661,1,1.0,0,1.0,0,1.0,0,1.0,0,1.0
407,'1',109.0,-9.7736332,55.481,-12.099,1.054,0,109.0,0.0,1.0,0.0,0.0,1.0,1,1.0,109.0,18.987,1,1.0,0,1.0,0,1.0,0,1.0,0,1.0
408,'1',75.323186,-9.7402985,55.481,-12.099,1.0569049,0,109.0,0.0,1.0,0.0,0.0,1.0,0,1.0,109.0,14.731,1,1.0,0,1.0,0,1.0,0,1.0,0,1.0
409,'1',109.0,-4.8300851,55.481,-12.099,1.054,0,109.0,0.0,1.0,0.0,0.0,1.0,1,1.0,109.0,32.57,1,1.0,0,1.0,0,1.0,0,1.0,0,1.0
410,'1',109.0,-4.9827532,55.481,-12.099,1.054,0,109.0,0.0,1.0,0.0,0.0,1.0,1,1.0,109.0,22.306,1,1.0,0,1.0,0,1.0,0,1.0,0,1.0
411,'1',64.312283,-5.3571552,55.481,-12.099,1.0569049,0,109.0,0.0,1.0,0.0,0.0,1.0,0,1.0,109.0,14.143,1,1.0,0,1.0,0,1.0,0,1.0,0,1.0
412,'1',109.0,-4.3027287,55.481,-12.099,1.054,0,109.0,0.0,1.0,0.0,0.0,1.0,1,1.0,109.0,23.483,1,1.0,0,1.0,0,1.0,0,1.0,0,1.0
413,'1',11.654,-2.641,20.698,-2.641,1.0403435,0,53.9,0.0,1.0,0.0,0.0,1.0,1,1.0,53.9,11.654,1,1.0,0,1.0,0,1.0,0,1.0,0,1.0
416,'1',108.20533,17.667442,165.029,-43.205,1.0011239,0,354.14,0.0,1.0,0.0,0.0,1.0,0,1.0,354.14,67.963,1,1.0,0,1.0,0,1.0,0,1.0,0,1.0
417,'1',131.174,-43.205,165.029,-43.205,1.0400034,0,354.14,0.0,1.0,0.0,0.0,1.0,1,1.0,354.14,131.174,1,1.0,0,1.0,0,1.0,0,1.0,0,1.0
418,'1',149.645,-23.272828,165.029,-43.205,1.04,0,354.14,0.0,1.0,0.0,0.0,1.0,1,1.0,354.14,149.645,1,1.0,0,1.0,0,1.0,0,1.0,0,1.0
419,'1',114.73007,18.8589,165.029,-43.205,1.0011239,0,354.14,0.0,1.0,0.0,0.0,1.0,0,1.0,354.14,56.643,1,1.0,0,1.0,0,1.0,0,1.0,0,1.0
420,'1',67.901,27.11869,165.029,-43.205,1.009,0,354.14,0.0,1.0,0.0,0.0,1.0,1,1.0,354.14,67.901,1,1.0,0,1.0,0,1.0,0,1.0,0,1.0
421,'1',51.5,-5.717,26.213,-5.717,1.0448576,0,51.5,0.0,1.0,0.0,0.0,1.0,1,1.0,51.5,24.828,1,1.0,0,1.0,0,1.0,0,1.0,0,1.0
421,'2',51.5,-5.717,26.213,-5.717,1.0448576,0,51.5,0.0,1.0,0.0,0.0,1.0,1,1.0,51.5,23.937,1,1.0,0,1.0,0,1.0,0,1.0,0,1.0
424,'1',112.797,-2.4394534,125.82,-32.94,1.0585,0,270.0,0.0,1.0,0.0,0.0,1.0,1,1.0,270.0,112.797,1,1.0,0,1.0,0,1.0,0,1.0,0,1.0
425,'1',134.33677,-3.2410408,125.82,-32.94,1.0592097,0,270.0,0.0,1.0,0.0,0.0,1.0,0,1.0,270.0,87.627,1,1.0,0,1.0,0,1.0,0,1.0,0,1.0
426,'1',102.816,-20.514901,125.82,-32.94,1.04,0,270.0,0.0,1.0,0.0,0.0,1.0,1,1.0,270.0,102.816,1,1.0,0,1.0,0,1.0,0,1.0,0,1.0
427,'1',127.89001,-2.9211064,125.82,-32.94,1.0592097,0,270.0,0.0,1.0,0.0,0.0,1.0,0,1.0,270.0,99.844,1,1.0,0,1.0,0,1.0,0,1.0,0,1.0
428,'1',67.953,-2.874647,125.82,-32.94,1.0585,0,270.0,0.0,1.0,0.0,0.0,1.0,1,1.0,270.0,67.953,1,1.0,0,1.0,0,1.0,0,1.0,0,1.0
431,'1',88.350001,30.81195,114.525,-24.975,1.0135,0,225.0,0.0,1.0,0.0,0.0,1.0,1,1.0,225.0,54.19,1,1.0,0,1.0,0,1.0,0,1.0,0,1.0
432,'1',109.28601,25.283121,114.525,-24.975,1.0025939,0,225.0,0.0,1.0,0.0,0.0,1.0,0,1.0,225.0,108.754,1,1.0,0,1.0,0,1.0,0,1.0,0,1.0
433,'1',225.0,24.729078,114.525,-24.975,1.0135,0,225.0,0.0,1.0,0.0,0.0,1.0,1,1.0,225.0,75.67,1,1.0,0,1.0,0,1.0,0,1.0,0,1.0
434,'1',143.44,42.446988,114.525,-24.975,1.0135,0,225.0,0.0,1.0,0.0,0.0,1.0,1,1.0,225.0,89.064,1,1.0,0,1.0,0,1.0,0,1.0,0,1.0
437,'1',156.34,102.33227,114.83,-25.042,1.0135,0,225.6,0.0,1.0,0.0,0.0,1.0,1,1.0,225.6,110.17,1,1.0,0,1.0,0,1.0,0,1.0,0,1.0
438,'1',68.787024,104.32661,114.83,-25.042,0.98201651,0,225.6,0.0,1.0,0.0,0.0,1.0,0,1.0,225.6,58.277,1,1.0,0,1.0,0,1.0,0,1.0,0,1.0
439,'1',117.25,114.45014,114.83,-25.042,1.0135,0,225.6,0.0,1.0,0.0,0.0,1.0,1,1.0,225.6,90.164,1,1.0,0,1.0,0,1.0,0,1.0,0,1.0
440,'1',109.32,114.13288,114.83,-25.042,1.0135,0,225.6,0.0,1.0,0.0,0.0,1.0,1,1.0,225.6,31.8,1,1.0,0,1.0,0,1.0,0,1.0,0,1.0
441,'1',11.334,-2.092,16.397,-2.092,1.0456496,0,42.7,0.0,1.0,0.0,0.0,1.0,1,1.0,42.7,11.334,1,1.0,0,1.0,0,1.0,0,1.0,0,1.0
441,'2',17.876,-2.092,16.397,-2.092,1.0456496,0,42.7,0.0,1.0,0.0,0.0,1.0,1,1.0,42.7,17.876,1,1.0,0,1.0,0,1.0,0,1.0,0,1.0
441,'3',15.695,-2.092,16.397,-2.092,1.0456496,0,42.7,0.0,1.0,0.0,0.0,1.0,1,1.0,42.7,15.695,1,1.0,0,1.0,0,1.0,0,1.0,0,1.0
443,'1',2.4879867,0.12720682,1.527,-0.333,1.04,0,3.0,0.0,1.0,0.0,0.0,1.0,0,1.0,3.0,1.43,1,1.0,0,1.0,0,1.0,0,1.0,0,1.0
443,'2',3.0,0.1018567,1.527,-0.333,1.04,0,3.0,0.0,1.0,0.0,0.0,1.0,1,1.0,3.0,0.466,1,1.0,0,1.0,0,1.0,0,1.0,0,1.0
444,'1',3.0,0.81975272,1.527,-0.333,1.0475,0,3.0,0.0,1.0,0.0,0.0,1.0,1,1.0,3.0,1.141,1,1.0,0,1.0,0,1.0,0,1.0,0,1.0
444,'2',3.0,0.81975272,1.527,-0.333,1.0475,0,3.0,0.0,1.0,0.0,0.0,1.0,1,1.0,3.0,1.295,1,1.0,0,1.0,0,1.0,0,1.0,0,1.0
448,'1',129.582,-34.567,132.036,-34.567,1.0434601,0,283.34,0.0,1.0,0.0,0.0,1.0,1,1.0,283.34,129.582,1,1.0,0,1.0,0,1.0,0,1.0,0,1.0
449,'1',160.58566,-34.567,132.036,-34.567,1.0541628,0,283.34,0.0,1.0,0.0,0.0,1.0,0,1.0,283.34,137.75,1,1.0,0,1.0,0,1.0,0,1.0,0,1.0
450,'1',130.33227,129.13027,132.036,-34.567,0.98061653,0,283.34,0.0,1.0,0.0,0.0,1.0,0,1.0,283.34,113.319,1,1.0,0,1.0,0,1.0,0,1.0,0,1.0
451,'1',84.208001,122.63759,132.036,-34.567,1.022,0,283.34,0.0,1.0,0.0,0.0,1.0,1,1.0,283.34,84.208,1,1.0,0,1.0,0,1.0,0,1.0,0,1.0
452,'1',66.152,125.55153,132.036,-34.567,1.0195,0,283.34,0.0,1.0,0.0,0.0,1.0,1,1.0,283.34,66.152,1,1.0,0,1.0,0,1.0,0,1.0,0,1.0
453,'1',11.536,-1.191,9.331,-1.191,1.043855,0,24.3,0.0,1.0,0.0,0.0,1.0,1,1.0,24.3,11.536,1,1.0,0,1.0,0,1.0,0,1.0,0,1.0
453,'2',10.913,-1.191,9.331,-1.191,1.043855,0,24.3,0.0,1.0,0.0,0.0,1.0,1,1.0,24.3,10.913,1,1.0,0,1.0,0,1.0,0,1.0,0,1.0
453,'3',9.2050002,-1.191,9.331,-1.191,1.043855,0,24.3,0.0,1.0,0.0,0.0,1.0,1,1.0,24.3,9.205,1,1.0,0,1.0,0,1.0,0,1.0,0,1.0
456,'1',187.0,67.983311,95.183,-20.757,1.018,0,187.0,0.0,1.0,0.0,0.0,1.0,1,1.0,187.0,76.093,1,1.0,0,1.0,0,1.0,0,1.0,0,1.0
457,'1',84.334395,22.435925,95.183,-20.757,1.0044404,0,187.0,0.0,1.0,0.0,0.0,1.0,0,1.0,187.0,45.01,1,1.0,0,1.0,0,1.0,0,1.0,0,1.0
458,'1',187.0,62.761157,95.183,-20.757,1.018,0,187.0,0.0,1.0,0.0,0.0,1.0,1,1.0,187.0,30.393,1,1.0,0,1.0,0,1.0,0,1.0,0,1.0
459,'1',187.0,63.423778,95.183,-20.757,1.018,0,187.0,0.0,1.0,0.0,0.0,1.0,1,1.0,187.0,76.131,1,1.0,0,1.0,0,1.0,0,1.0,0,1.0
462,'1',132.65093,-17.296243,139.602,-30.444,1.0045,0,274.27,0.0,1.0,0.0,0.0,1.0,1,1.0,274.267,109.757,1,1.0,0,1.0,0,1.0,0,1.0,0,1.0
463,'1',86.151105,-20.190612,139.602,-30.444,1.0098854,0,274.27,0.0,1.0,0.0,0.0,1.0,0,1.0,274.267,78.369,1,1.0,0,1.0,0,1.0,0,1.0,0,1.0
464,'1',101.68,-18.369486,139.602,-30.444,1.0045,0,274.27,0.0,1.0,0.0,0.0,1.0,1,1.0,274.267,58.535,1,1.0,0,1.0,0,1.0,0,1.0,0,1.0
466,'1',10.571,7.1158761,9.696,-1.237,1.07,0,25.25,0.0,1.0,0.0,0.0,1.0,1,1.0,25.25,10.571,1,1.0,0,1.0,0,1.0,0,1.0,0,1.0
466,'2',5.7460002,7.1158761,9.696,-1.237,1.07,0,25.25,0.0,1.0,0.0,0.0,1.0,1,1.0,25.25,5.746,1,1.0,0,1.0,0,1.0,0,1.0,0,1.0
470,'1',231.83839,-19.117312,262.125,-68.625,1.044189,0,562.5,0.0,1.0,0.0,0.0,1.0,0,1.0,562.5,183.095,1,1.0,0,1.0,0,1.0,0,1.0,0,1.0
471,'1',90.746,-28.400819,262.125,-68.625,1.04,0,562.5,0.0,1.0,0.0,0.0,1.0,1,1.0,562.5,90.746,1,1.0,0,1.0,0,1.0,0,1.0,0,1.0
472,'1',24.5,-2.719,12.471,-2.719,1.0474938,0,24.5,0.0,1.0,0.0,0.0,1.0,1,1.0,24.5,7.711,1,1.0,0,1.0,0,1.0,0,1.0,0,1.0
472,'2',19.747823,-2.719,12.471,-2.719,1.0474938,0,24.5,0.0,1.0,0.0,0.0,1.0,0,1.0,24.5,10.439,1,1.0,0,1.0,0,1.0,0,1.0,0,1.0
475,'1',9.2210002,-1.431,11.213,-1.431,1.0681732,0,29.2,0.0,1.0,0.0,0.0,1.0,1,1.0,29.2,9.221,1,1.0,0,1.0,0,1.0,0,1.0,0,1.0
475,'2',4.2240002,-1.431,11.213,-1.431,1.0681732,0,29.2,0.0,1.0,0.0,0.0,1.0,1,1.0,29.2,4.224,1,1.0,0,1.0,0,1.0,0,1.0,0,1.0
476,'1',13.934,-0.72514286,11.213,-1.431,1.0695,0,29.2,0.0,1.0,0.0,0.0,1.0,1,1.0,29.2,13.934,1,1.0,0,1.0,0,1.0,0,1.0,0,1.0
478,'1',49.3,-5.4719999,25.094,-5.472,1.0623525,0,49.3,0.0,1.0,0.0,0.0,1.0,1,1.0,49.3,19.901,1,1.0,0,1.0,0,1.0,0,1.0,0,1.0
478,'2',49.3,-5.4719999,25.094,-5.472,1.0623525,0,49.3,0.0,1.0,0.0,0.0,1.0,1,1.0,49.3,19.103,1,1.0,0,1.0,0,1.0,0,1.0,0,1.0
481,'1',160.06789,-4.0864058,187.593,-49.112,1.034819,0,402.56,0.0,1.0,0.0,0.0,1.0,0,1.0,402.56,154.153,1,1.0,0,1.0,0,1.0,0,1.0,0,1.0
482,'1',108.82411,99.951716,187.593,-49.112,1.034819,0,402.56,0.0,1.0,0.0,0.0,1.0,0,1.0,402.56,86.185,1,1.0,0,1.0,0,1.0,0,1.0,0,1.0
483,'1',263.3002,17.186552,187.593,-49.112,1.034819,0,402.56,0.0,1.0,0.0,0.0,1.0,0,1.0,402.56,189.085,1,1.0,0,1.0,0,1.0,0,1.0,0,1.0
484,'1',113.904,18.812437,187.593,-49.112,1.04,0,402.56,0.0,1.0,0.0,0.0,1.0,1,1.0,402.56,113.904,1,1.0,0,1.0,0,1.0,0,1.0,0,1.0
485,'1',56.892,102.59919,187.593,-49.112,1.055,0,402.56,0.0,1.0,0.0,0.0,1.0,1,1.0,402.56,56.892,1,1.0,0,1.0,0,1.0,0,1.0,0,1.0
486,'1',8.9669722,-1.413,11.072,-1.413,1.052256,0,28.83,0.0,1.0,0.0,0.0,1.0,0,1.0,28.833,3.64,1,1.0,0,1.0,0,1.0,0,1.0,0,1.0
486,'2',12.556,-1.413,11.072,-1.413,1.052256,0,28.83,0.0,1.0,0.0,0.0,1.0,1,1.0,28.833,12.556,1,1.0,0,1.0,0,1.0,0,1.0,0,1.0
486,'3',13.66,-1.413,11.072,-1.413,1.052256,0,28.83,0.0,1.0,0.0,0.0,1.0,1,1.0,28.833,13.66,1,1.0,0,1.0,0,1.0,0,1.0,0,1.0
...
0 / END OF GENERATOR DATA BEGIN BRANCH DATA
2,212,'1',0.0154525,0.0792528,0.0268017,239.94,239.94,239.94,0.0,0.0,0.0,0.0,1,1,0.0,1,1.0,0,1.0,0,1.0,0,1.0
3,53,'1',0.00358046,0.0258456,0.0131628,260.03,260.03,260.03,0.0,0.0,0.0,0.0,1,1,0.0,1,1.0,0,1.0,0,1.0,0,1.0
3,53,'2',0.00358046,0.0258456,0.0131628,260.03,260.03,260.03,0.0,0.0,0.0,0.0,1,1,0.0,1,1.0,0,1.0,0,1.0,0,1.0
3,213,'1',0.00319977,0.0219502,0.0125158,256.59,256.59,256.59,0.0,0.0,0.0,0.0,1,1,0.0,1,1.0,0,1.0,0,1.0,0,1.0
4,5,'1',0.00696197,0.0360534,0.0111497,218.77,218.77,218.77,0.0,0.0,0.0,0.0,1,1,0.0,1,1.0,0,1.0,0,1.0,0,1.0
4,331,'1',0.00775811,0.0380507,0.0134745,227.23,227.23,227.23,0.0,0.0,0.0,0.0,1,1,0.0,1,1.0,0,1.0,0,1.0,0,1.0
5,331,'1',0.00487853,0.02675,0.00815727,198.63,198.63,198.63,0.0,0.0,0.0,0.0,1,1,0.0,1,1.0,0,1.0,0,1.0,0,1.0
5,351,'1',0.0124676,0.0654224,0.0163807,269.59,269.59,269.59,0.0,0.0,0.0,0.0,1,1,0.0,1,1.0,0,1.0,0,1.0,0,1.0
6,331,'1',0.0051151,0.0236629,0.0391647,336.94,336.94,336.94,0.0,0.0,0.0,0.0,1,1,0.0,1,1.0,0,1.0,0,1.0,0,1.0
8,461,'1',0.00268087,0.0132507,0.00588479,232.73,232.73,232.73,0.0,0.0,0.0,0.0,1,1,0.0,1,1.0,0,1.0,0,1.0,0,1.0
10,11,'1',0.0133436,0.0919039,0.0115271,212.51,212.51,212.51,0.0,0.0,0.0,0.0,1,1,0.0,1,1.0,0,1.0,0,1.0,0,1.0
10,406,'1',0.00631471,0.0440302,0.0307124,216.36,216.36,216.36,0.0,0.0,0.0,0.0,1,1,0.0,1,1.0,0,1.0,0,1.0,0,1.0
11,58,'1',0.0286556,0.128792,0.0377904,204.21,204.21,204.21,0.0,0.0,0.0,0.0,1,1,0.0,1,1.0,0,1.0,0,1.0,0,1.0
12,10,'1',0.00363287,0.0200568,0.0589258,206.37,206.37,206.37,0.0,0.0,0.0,0.0,1,1,0.0,1,1.0,0,1.0,0,1.0,0,1.0
12,406,'1',0.00340925,0.0206369,0.0061444,233.32,233.32,233.32,0.0,0.0,0.0,0.0,1,1,0.0,1,1.0,0,1.0,0,1.0,0,1.0
13,17,'1',0.0100597,0.0575367,0.0312509,227.86,227.86,227.86,0.0,0.0,0.0,0.0,1,1,0.0,1,1.0,0,1.0,0,1.0,0,1.0
14,156,'1',0.00832308,0.0444584,0.0151703,264.27,264.27,264.27,0.0,0.0,0.0,0.0,1,1,0.0,1,1.0,0,1.0,0,1.0,0,1.0
15,55,'1',0.0113961,0.0625895,0.0161825,218.52,218.52,218.52,0.0,0.0,0.0,0.0,1,1,0.0,1,1.0,0,1.0,0,1.0,0,1.0
16,162,'1',0.012951,0.0665246,0.0176437,224.35,224.35,224.35,0.0,0.0,0.0,0.0,1,1,0.0,1,1.0,0,1.0,0,1.0,0,1.0
16,304,'1',0.00759675,0.0410247,0.0264718,236.54,236.54,236.54,0.0,0.0,0.0,0.0,1,1,0.0,1,1.0,0,1.0,0,1.0,0,1.0
18,19,'1',0.0106007,0.0397642,0.0085879,245.27,245.27,245.27,0.0,0.0,0.0,0.0,0,1,0.0,1,1.0,0,1.0,0,1.0,0,1.0
18,81,'1',0.00978753,0.0448943,0.023169,223.47,223.47,223.47,0.0,0.0,0.0,0.0,1,1,0.0,1,1.0,0,1.0,0,1.0,0,1.0
18,310,'1',0.004373,0.0260086,0.0242791,277.5,277.5,277.5,0.0,0.0,0.0,0.0,1,1,0.0,1,1.0,0,1.0,0,1.0,0,1.0
18,310,'2',0.004373,0.0260086,0.0242791,277.5,277.5,277.5,0.0,0.0,0.0,0.0,1,1,0.0,1,1.0,0,1.0,0,1.0,0,1.0
19,141,'1',0.00579211,0.0290206,0.0189553,251.0,251.0,251.0,0.0,0.0,0.0,0.0,1,1,0.0,1,1.0,0,1.0,0,1.0,0,1.0
19,436,'1',0.00397383,0.0271653,0.0337435,212.6,212.6,212.6,0.0,0.0,0.0,0.0,1,1,0.0,1,1.0,0,1.0,0,1.0,0,1.0
20,22,'1',0.000207968,0.00111847,0.0,99999.0,99999.0,99999.0,0.0,0.0,0.0,0.0,1,1,0.0,1,1.0,0,1.0,0,1.0,0,1.0
21,23,'1',0.00250938,0.0172465,0.0313608,248.08,248.08,248.08,0.0,0.0,0.0,0.0,1,1,0.0,1,1.0,0,1.0,0,1.0,0,1.0
22,295,'1',0.0015308,0.016473,0.364525,1075.02,1075.02,1075.02,0.0,0.0,0.0,0.0,1,1,0.0,1,1.0,0,1.0,0,1.0,0,1.0
22,405,'1',0.002026,0.028747,1.00897,1001.46,1001.46,1001.46,0.0,0.0,0.0,0.0,1,1,0.0,1,1.0,0,1.0,0,1.0,0,1.0
23,179,'1',0.008727,0.054891,0.034891,236.33,236.33,236.33,0.0,0.0,0.0,0.0,1,1,0.0,1,1.0,0,1.0,0,1.0,0,1.0
24,4,'1',0.00353554,0.0227525,0.0272812,241.53,241.53,241.53,0.0,0.0,0.0,0.0,1,1,0.0,1,1.0,0,1.0,0,1.0,0,1.0
24,56,'1',0.00957472,0.0499942,0.0131242,244.03,244.03,244.03,0.0,0.0,0.0,0.0,1,1,0.0,1,1.0,0,1.0,0,1.0,0,1.0
25,27,'1',0.000257042,0.00119754,0.0,99999.0,99999.0,99999.0,0.0,0.0,0.0,0.0,1,1,0.0,1,1.0,0,1.0,0,1.0,0,1.0
25,314,'1',0.00158469,0.0214403,0.275456,1151.39,1151.39,1151.39,0.0,0.0,0.0,0.0,1,1,0.0,1,1.0,0,1.0,0,1.0,0,1.0
28,29,'1',0.0121765,0.0608641,0.0130017,207.91,207.91,207.91,0.0,0.0,0.0,0.0,1,1,0.0,1,1.0,0,1.0,0,1.0,0,1.0
28,30,'1',0.00432531,0.0200998,0.00802657,230.9,230.9,230.9,0.0,0.0,0.0,0.0,1,1,0.0,1,1.0,0,1.0,0,1.0,0,1.0
29,356,'1',0.00799791,0.0387782,0.0352203,188.9,188.9,188.9,0.0,0.0,0.0,0.0,1,1,0.0,1,1.0,0,1.0,0,1.0,0,1.0
30,26,'1',0.00666488,0.0320152,0.0220243,304.68,304.68,304.68,0.0,0.0,0.0,0.0,1,1,0.0,1,1.0,0,1.0,0,1.0,0,1.0
31,228,'1',0.008946,0.057044,0.025829,280.0,280.0,280.0,0.0,0.0,0.0,0.0,1,1,0.0,1,1.0,0,1.0,0,1.0,0,1.0
31,296,'1',0.00518286,0.0326049,0.0584572,358.79,358.79,358.79,0.0,0.0,0.0,0.0,1,1,0.0,1,1.0,0,1.0,0,1.0,0,1.0
31,415,'1',0.0113363,0.0554702,0.0432148,231.46,231.46,231.46,0.0,0.0,0.0,0.0,1,1,0.0,1,1.0,0,1.0,0,1.0,0,1.0
33,32,'1',0.00681448,0.0338755,0.0131701,196.59,196.59,196.59,0.0,0.0,0.0,0.0,1,1,0.0,1,1.0,0,1.0,0,1.0,0,1.0
34,33,'1',0.00341126,0.0247052,0.0295283,270.99,270.99,270.99,0.0,0.0,0.0,0.0,1,1,0.0,1,1.0,0,1.0,0,1.0,0,1.0
34,33,'2',0.00341126,0.0247052,0.0295283,270.99,270.99,270.99,0.0,0.0,0.0,0.0,1,1,0.0,1,1.0,0,1.0,0,1.0,0,1.0
35,40,'1',0.00293506,0.0185201,0.00990083,228.32,228.32,228.32,0.0,0.0,0.0,0.0,1,1,0.0,1,1.0,0,1.0,0,1.0,0,1.0
35,42,'1',0.00449505,0.0326042,0.0129473,276.08,276.08,276.08,0.0,0.0,0.0,0.0,1,1,0.0,1,1.0,0,1.0,0,1.0,0,1.0
36,2,'1',0.00289863,0.0167658,0.0148842,188.66,188.66,188.66,0.0,0.0,0.0,0.0,1,1,0.0,1,1.0,0,1.0,0,1.0,0,1.0
36,33,'1',0.00284038,0.0206656,0.011617,213.45,213.45,213.45,0.0,0.0,0.0,0.0,1,1,0.0,1,1.0,0,1.0,0,1.0,0,1.0
37,35,'1',0.00780774,0.0366615,0.0156035,218.76,218.76,218.76,0.0,0.0,0.0,0.0,1,1,0.0,1,1.0,0,1.0,0,1.0,0,1.0
37,44,'1',0.00830767,0.0554788,0.0311844,200.99,200.99,200.99,0.0,0.0,0.0,0.0,1,1,0.0,1,1.0,0,1.0,0,1.0,0,1.0
38,39,'1',0.00316109,0.0157664,0.019275,252.83,252.83,252.83,0.0,0.0,0.0,0.0,1,1,0.0,1,1.0,0,1.0,0,1.0,0,1.0
38,49,'1',0.0106902,0.0689767,0.0297214,204.2,204.2,204.2,0.0,0.0,0.0,0.0,1,1,0.0,1,1.0,0,1.0,0,1.0,0,1.0
39,35,'1',0.00384653,0.022595,0.0115165,259.81,259.81,259.81,0.0,0.0,0.0,0.0,1,1,0.0,1,1.0,0,1.0,0,1.0,0,1.0
39,35,'2',0.00384653,0.022595,0.0115165,259.81,259.81,259.81,0.0,0.0,0.0,0.0,1,1,0.0,1,1.0,0,1.0,0,1.0,0,1.0
39,361,'1',0.00410223,0.0323982,0.0223687,296.76,296.76,296.76,0.0,0.0,0.0,0.0,1,1,0.0,1,1.0,0,1.0,0,1.0,0,1.0
39,361,'2',0.00410223,0.0323982,0.0223687,296.76,296.76,296.76,0.0,0.0,0.0,0.0,1,1,0.0,1,1.0,0,1.0,0,1.0,0,1.0
39,361,'3',0.00410223,0.0323982,0.0223687,296.76,296.76,296.76,0.0,0.0,0.0,0.0,1,1,0.0,1,1.0,0,1.0,0,1.0,0,1.0
41,43,'1',0.000233031,0.00104503,0.0,99999.0,99999.0,99999.0,0.0,0.0,0.0,0.0,1,1,0.0,1,1.0,0,1.0,0,1.0,0,1.0
42,40,'1',0.00435644,0.0248836,0.0126137,308.21,308.21,308.21,0.0,0.0,0.0,0.0,1,1,0.0,1,1.0,0,1.0,0,1.0,0,1.0
43,54,'1',0.00111725,0.0133249,0.292213,1210.87,1210.87,1210.87,0.0,0.0,0.0,0.0,1,1,0.0,1,1.0,0,1.0,0,1.0,0,1.0
43,498,'1',0.00161178,0.0198636,0.286039,1210.03,1210.03,1210.03,0.0,0.0,0.0,0.0,1,1,0.0,1,1.0,0,1.0,0,1.0,0,1.0
44,42,'1',0.00483059,0.022229,0.00975406,240.21,240.21,240.21,0.0,0.0,0.0,0.0,1,1,0.0,1,1.0,0,1.0,0,1.0,0,1.0
45,36,'1',0.00469767,0.0323288,0.00954514,196.67,196.67,196.67,0.0,0.0,0.0,0.0,1,1,0.0,1,1.0,0,1.0,0,1.0,0,1.0
45,37,'1',0.00411194,0.0226471,0.0067485,223.09,223.09,223.09,0.0,0.0,0.0,0.0,1,1,0.0,1,1.0,0,1.0,0,1.0,0,1.0
46,45,'1',0.0023403,0.0128024,0.0123531,401.85,401.85,401.85,0.0,0.0,0.0,0.0,1,1,0.0,1,1.0,0,1.0,0,1.0,0,1.0
46,50,'1',0.00351582,0.0151322,0.0225659,213.18,213.18,213.18,0.0,0.0,0.0,0.0,1,1,0.0,1,1.0,0,1.0,0,1.0,0,1.0
46,51,'1',0.00390017,0.0201794,0.0263679,290.75,290.75,290.75,0.0,0.0,0.0,0.0,1,1,0.0,1,1.0,0,1.0,0,1.0,0,1.0
46,51,'2',0.00390017,0.0201794,0.0263679,290.75,290.75,290.75,0.0,0.0,0.0,0.0,1,1,0.0,1,1.0,0,1.0,0,1.0,0,1.0
46,214,'1',0.00565635,0.0285577,0.0458282,324.34,324.34,324.34,0.0,0.0,0.0,0.0,1,1,0.0,1,1.0,0,1.0,0,1.0,0,1.0
47,40,'1',0.00542345,0.0298445,0.00973297,209.65,209.65,209.65,0.0,0.0,0.0,0.0,1,1,0.0,1,1.0,0,1.0,0,1.0,0,1.0
48,50,'1',0.00493315,0.0197057,0.0266381,231.0,231.0,231.0,0.0,0.0,0.0,0.0,1,1,0.0,1,1.0,0,1.0,0,1.0,0,1.0
48,480,'1',0.0141266,0.063385,0.013796,270.01,270.01,270.01,0.0,0.0,0.0,0.0,1,1,0.0,1,1.0,0,1.0,0,1.0,0,1.0
49,47,'1',0.00274605,0.0168842,0.011861,210.29,210.29,210.29,0.0,0.0,0.0,0.0,1,1,0.0,1,1.0,0,1.0,0,1.0,0,1.0
50,49,'1',0.00420333,0.0189576,0.00848235,263.28,263.28,263.28,0.0,0.0,0.0,0.0,1,1,0.0,1,1.0,0,1.0,0,1.0,0,1.0
50,51,'1',0.00306979,0.0198041,0.0129611,299.51,299.51,299.51,0.0,0.0,0.0,0.0,1,1,0.0,1,1.0,0,1.0,0,1.0,0,1.0
51,48,'1',0.00285314,0.0207706,0.0111933,206.03,206.03,206.03,0.0,0.0,0.0,0.0,1,1,0.0,1,1.0,0,1.0,0,1.0,0,1.0
51,70,'1',0.00927047,0.0420854,0.0202396,302.02,302.02,302.02,0.0,0.0,0.0,0.0,1,1,0.0,1,1.0,0,1.0,0,1.0,0,1.0
51,357,'1',0.00606199,0.0375019,0.0462067,281.97,281.97,281.97,0.0,0.0,0.0,0.0,1,1,0.0,1,1.0,0,1.0,0,1.0,0,1.0
51,357,'2',0.00606199,0.0375019,0.0462067,281.97,281.97,281.97,0.0,0.0,0.0,0.0,1,1,0.0,1,1.0,0,1.0,0,1.0,0,1.0
51,357,'3',0.00606199,0.0375019,0.0462067,281.97,281.97,281.97,0.0,0.0,0.0,0.0,1,1,0.0,1,1.0,0,1.0,0,1.0,0,1.0
52,54,'1',0.000209023,0.00101092,0.0,99999.0,99999.0,99999.0,0.0,0.0,0.0,0.0,1,1,0.0,1,1.0,0,1.0,0,1.0,0,1.0
53,32,'1',0.00540244,0.030335,0.00829098,226.77,226.77,226.77,0.0,0.0,0.0,0.0,1,1,0.0,1,1.0,0,1.0,0,1.0,0,1.0
53,36,'1',0.00511899,0.0318872,0.0170703,230.21,230.21,230.21,0.0,0.0,0.0,0.0,1,1,0.0,1,1.0,0,1.0,0,1.0,0,1.0
53,45,'1',0.00448796,0.0251172,0.0179586,273.78,273.78,273.78,0.0,0.0,0.0,0.0,1,1,0.0,1,1.0,0,1.0,0,1.0,0,1.0
53,45,'2',0.00448796,0.0251172,0.0179586,273.78,273.78,273.78,0.0,0.0,0.0,0.0,1,1,0.0,1,1.0,0,1.0,0,1.0,0,1.0
55,72,'1',0.00255071,0.0145816,0.0529998,202.42,202.42,202.42,0.0,0.0,0.0,0.0,1,1,0.0,1,1.0,0,1.0,0,1.0,0,1.0
57,66,'1',0.012542,0.0731735,0.0174808,188.33,188.33,188.33,0.0,0.0,0.0,0.0,1,1,0.0,1,1.0,0,1.0,0,1.0,0,1.0
...